<?xml version="1.0" encoding="UTF-8"?>

<!-- generated on 2025-01-24 16:54:06.459344 by osmWebWizard.py UNKNOWN
<configuration>
    <net-file value="/home/pulkitshringi/Sumo/2025-01-24-16-53-59/osm.net.xml.gz"/>
    <output-trip-file value="/home/pulkitshringi/Sumo/2025-01-24-16-53-59/osm.motorcycle.trips.xml"/>
    <route-file value="/home/pulkitshringi/Sumo/2025-01-24-16-53-59/osm.motorcycle.rou.xml"/>
    <prefix value="motorcycle"/>
    <trip-attributes value="departLane=&quot;best&quot;"/>
    <fringe-start-attributes value="departSpeed=&quot;max&quot;"/>
    <vehicle-class value="motorcycle"/>
    <fringe-factor value="2"/>
    <vclass value="motorcycle"/>
    <via-edge-types value="highway.motorway,highway.motorway_link,highway.trunk_link,highway.primary_link,highway.secondary_link,highway.tertiary_link"/>
    <max-distance value="1200.0"/>
    <remove-loops value="True"/>
    <validate value="True"/>
    <insertion-density value="4.0"/>
</configuration>
-->

<!-- generated on 2025-01-24 16:54:06 by Eclipse SUMO duarouter Version 1.21.0
<duarouterConfiguration xmlns:xsi="http://www.w3.org/2001/XMLSchema-instance" xsi:noNamespaceSchemaLocation="http://sumo.dlr.de/xsd/duarouterConfiguration.xsd">

    <input>
        <net-file value="/home/pulkitshringi/Sumo/2025-01-24-16-53-59/osm.net.xml.gz"/>
        <route-files value="/home/pulkitshringi/Sumo/2025-01-24-16-53-59/osm.motorcycle.trips.xml"/>
    </input>

    <output>
        <output-file value="/home/pulkitshringi/Sumo/2025-01-24-16-53-59/osm.motorcycle.trips.xml.tmp"/>
        <alternatives-output value="NUL"/>
        <write-trips value="true"/>
    </output>

    <processing>
        <remove-loops value="true"/>
    </processing>

    <time>
        <begin value="0.0"/>
        <end value="3600.0"/>
    </time>

    <report>
        <no-warnings value="true"/>
        <ignore-errors value="true"/>
        <no-step-log value="true"/>
    </report>

</duarouterConfiguration>
-->

<routes xmlns:xsi="http://www.w3.org/2001/XMLSchema-instance" xsi:noNamespaceSchemaLocation="http://sumo.dlr.de/xsd/routes_file.xsd">
    <vType id="motorcycle_motorcycle" vClass="motorcycle"/>
    <trip id="motorcycle0" type="motorcycle_motorcycle" depart="0.00" departLane="best" from="-207269318#0" to="-112716549#2"/>
    <trip id="motorcycle1" type="motorcycle_motorcycle" depart="17.44" departLane="best" from="-28161299#1" to="-23499286#1"/>
    <trip id="motorcycle2" type="motorcycle_motorcycle" depart="34.88" departLane="best" from="23499291#1" to="217685967#0"/>
    <trip id="motorcycle3" type="motorcycle_motorcycle" depart="52.31" departLane="best" from="112716509#0" to="-112716561"/>
    <trip id="motorcycle6" type="motorcycle_motorcycle" depart="104.63" departLane="best" from="-207270093" to="237621836#4"/>
    <trip id="motorcycle8" type="motorcycle_motorcycle" depart="139.50" departLane="best" from="26808454#12" to="1089072535#1"/>
    <trip id="motorcycle9" type="motorcycle_motorcycle" depart="156.94" departLane="best" from="26808454#1" to="23499279#5"/>
    <trip id="motorcycle10" type="motorcycle_motorcycle" depart="174.38" departLane="best" from="-31251140#4" to="207146758"/>
    <trip id="motorcycle11" type="motorcycle_motorcycle" depart="191.82" departLane="best" from="1198568754" to="31251137"/>
    <trip id="motorcycle12" type="motorcycle_motorcycle" depart="209.25" departLane="best" from="-1190768504" to="-1191363305"/>
    <trip id="motorcycle14" type="motorcycle_motorcycle" depart="244.13" departLane="best" from="26808454#10" to="23499290#5"/>
    <trip id="motorcycle15" type="motorcycle_motorcycle" depart="261.57" departLane="best" from="-1189790616" to="668451836"/>
    <trip id="motorcycle16" type="motorcycle_motorcycle" depart="279.01" departLane="best" from="48057020" to="-1213248834#2"/>
    <trip id="motorcycle17" type="motorcycle_motorcycle" depart="296.44" departLane="best" from="28161299#1" to="155750050"/>
    <trip id="motorcycle18" type="motorcycle_motorcycle" depart="313.88" departLane="best" from="23499283#2" to="-112716566#0"/>
    <trip id="motorcycle19" type="motorcycle_motorcycle" depart="331.32" departLane="best" from="-23499290#1" to="-28295586#4"/>
    <trip id="motorcycle20" type="motorcycle_motorcycle" depart="348.76" departLane="best" from="1149857667#8" to="23499290#4"/>
    <trip id="motorcycle21" type="motorcycle_motorcycle" depart="366.19" departLane="best" from="-1213248832" to="-28161299#2"/>
    <trip id="motorcycle22" type="motorcycle_motorcycle" depart="383.63" departLane="best" from="-207269298#0" to="33622112"/>
    <trip id="motorcycle23" type="motorcycle_motorcycle" depart="401.07" departLane="best" from="-33622826#0" to="-23075470#0"/>
    <trip id="motorcycle24" type="motorcycle_motorcycle" depart="418.51" departLane="best" from="207270066#0" to="1323796135#0"/>
    <trip id="motorcycle25" type="motorcycle_motorcycle" depart="435.95" departLane="best" from="-207270066#1" to="23499290#4"/>
    <trip id="motorcycle26" type="motorcycle_motorcycle" depart="453.38" departLane="best" from="207269325#0" to="-397330148"/>
    <trip id="motorcycle27" type="motorcycle_motorcycle" depart="470.82" departLane="best" from="995115346" to="207269318#1"/>
    <trip id="motorcycle28" type="motorcycle_motorcycle" depart="488.26" departLane="best" from="33622114#7" to="23075452#2"/>
    <trip id="motorcycle30" type="motorcycle_motorcycle" depart="523.14" departLane="best" from="-23499290#2" to="-112716562#1"/>
    <trip id="motorcycle32" type="motorcycle_motorcycle" depart="558.01" departLane="best" from="-23499283#0" to="33622829"/>
    <trip id="motorcycle33" type="motorcycle_motorcycle" depart="575.45" departLane="best" from="-217684151" to="995115344"/>
    <trip id="motorcycle34" type="motorcycle_motorcycle" depart="592.89" departLane="best" from="33622109" to="112716566#1"/>
    <trip id="motorcycle36" type="motorcycle_motorcycle" depart="627.76" departLane="best" from="1289116082#12" to="33622102#1"/>
    <trip id="motorcycle37" type="motorcycle_motorcycle" depart="645.20" departLane="best" from="-995118316" to="23499285#2"/>
    <trip id="motorcycle38" type="motorcycle_motorcycle" depart="662.64" departLane="best" from="-995118316" to="1149857667#3"/>
    <trip id="motorcycle39" type="motorcycle_motorcycle" depart="680.08" departLane="best" from="-1189790616" to="-112716566#1"/>
    <trip id="motorcycle40" type="motorcycle_motorcycle" depart="697.51" departLane="best" from="-1215008046" to="206540074"/>
    <trip id="motorcycle44" type="motorcycle_motorcycle" depart="767.27" departLane="best" from="-102030553#0" to="30247208#4"/>
    <trip id="motorcycle46" type="motorcycle_motorcycle" depart="802.14" departLane="best" from="218191051" to="1190768504"/>
    <trip id="motorcycle48" type="motorcycle_motorcycle" depart="837.02" departLane="best" from="-1231346482#1" to="112716539#1"/>
    <trip id="motorcycle50" type="motorcycle_motorcycle" depart="871.89" departLane="best" from="33622107#2" to="30923610#0"/>
    <trip id="motorcycle52" type="motorcycle_motorcycle" depart="906.77" departLane="best" from="1313080418" to="206540074"/>
    <trip id="motorcycle53" type="motorcycle_motorcycle" depart="924.21" departLane="best" from="237621839#1" to="1191363304"/>
    <trip id="motorcycle54" type="motorcycle_motorcycle" depart="941.64" departLane="best" from="-23804689#3" to="1188218785"/>
    <trip id="motorcycle55" type="motorcycle_motorcycle" depart="959.08" departLane="best" from="-102030553#0" to="30923610#2"/>
    <trip id="motorcycle57" type="motorcycle_motorcycle" depart="993.96" departLane="best" from="-30923610#6" to="-28295586#0"/>
    <trip id="motorcycle58" type="motorcycle_motorcycle" depart="1011.40" departLane="best" from="-30247208#2" to="-112716595#0"/>
    <trip id="motorcycle59" type="motorcycle_motorcycle" depart="1028.83" departLane="best" from="-30923610#6" to="397330141#0"/>
    <trip id="motorcycle60" type="motorcycle_motorcycle" depart="1046.27" departLane="best" from="-1188046649" to="1149819097#5"/>
    <trip id="motorcycle61" type="motorcycle_motorcycle" depart="1063.71" departLane="best" from="-1149857667#0" to="237621838"/>
    <trip id="motorcycle65" type="motorcycle_motorcycle" depart="1133.46" departLane="best" from="-1191351067" to="23499290#5"/>
    <trip id="motorcycle66" type="motorcycle_motorcycle" depart="1150.90" departLane="best" from="995118259#2" to="207270093"/>
    <trip id="motorcycle69" type="motorcycle_motorcycle" depart="1203.21" departLane="best" from="-23499290#3" to="23499285#2"/>
    <trip id="motorcycle70" type="motorcycle_motorcycle" depart="1220.65" departLane="best" from="-1149857667#1" to="207146758"/>
    <trip id="motorcycle71" type="motorcycle_motorcycle" depart="1238.09" departLane="best" from="-23499290#2" to="33622106#0"/>
    <trip id="motorcycle72" type="motorcycle_motorcycle" depart="1255.53" departLane="best" from="-30247208#2" to="-1149857667#1"/>
    <trip id="motorcycle73" type="motorcycle_motorcycle" depart="1272.96" departLane="best" from="-23499290#9" to="-217685959#1"/>
    <trip id="motorcycle74" type="motorcycle_motorcycle" depart="1290.40" departLane="best" from="-23499284" to="-1296936006#1"/>
    <trip id="motorcycle75" type="motorcycle_motorcycle" depart="1307.84" departLane="best" from="33622433" to="-1247093646#0"/>
    <trip id="motorcycle77" type="motorcycle_motorcycle" depart="1342.71" departLane="best" from="26808454#10" to="-217685958"/>
    <trip id="motorcycle78" type="motorcycle_motorcycle" depart="1360.15" departLane="best" from="-1207215984" to="112716522#1"/>
    <trip id="motorcycle79" type="motorcycle_motorcycle" depart="1377.59" departLane="best" from="112716511#0" to="112716587#1"/>
    <trip id="motorcycle80" type="motorcycle_motorcycle" depart="1395.03" departLane="best" from="23499290#4" to="-217685963"/>
    <trip id="motorcycle81" type="motorcycle_motorcycle" depart="1412.47" departLane="best" from="767910883" to="1207215984"/>
    <trip id="motorcycle82" type="motorcycle_motorcycle" depart="1429.90" departLane="best" from="1078366795#1" to="31251140#1"/>
    <trip id="motorcycle83" type="motorcycle_motorcycle" depart="1447.34" departLane="best" from="30247208#4" to="-23804689#3"/>
    <trip id="motorcycle84" type="motorcycle_motorcycle" depart="1464.78" departLane="best" from="217685959#0" to="-112716562#3"/>
    <trip id="motorcycle86" type="motorcycle_motorcycle" depart="1499.66" departLane="best" from="23804689#6" to="33622114#2"/>
    <trip id="motorcycle88" type="motorcycle_motorcycle" depart="1534.53" departLane="best" from="1213248834#1" to="-112716581#0"/>
    <trip id="motorcycle90" type="motorcycle_motorcycle" depart="1569.41" departLane="best" from="566562032#4" to="33622114#4"/>
    <trip id="motorcycle93" type="motorcycle_motorcycle" depart="1621.72" departLane="best" from="-102030553#1" to="-112716595#1"/>
    <trip id="motorcycle94" type="motorcycle_motorcycle" depart="1639.16" departLane="best" from="48057020" to="995115340"/>
    <trip id="motorcycle98" type="motorcycle_motorcycle" depart="1708.91" departLane="best" from="-1215008046" to="23499289#0"/>
    <trip id="motorcycle99" type="motorcycle_motorcycle" depart="1726.35" departLane="best" from="-207267781" to="-28295587#0"/>
    <trip id="motorcycle100" type="motorcycle_motorcycle" depart="1743.78" departLane="best" from="566562032#4" to="1285494447"/>
    <trip id="motorcycle101" type="motorcycle_motorcycle" depart="1761.22" departLane="best" from="1196773156" to="237621835#6"/>
    <trip id="motorcycle103" type="motorcycle_motorcycle" depart="1796.10" departLane="best" departSpeed="max" from="1149857666#0" to="-30247206#0"/>
    <trip id="motorcycle104" type="motorcycle_motorcycle" depart="1813.54" departLane="best" from="-207269298#0" to="48057014"/>
    <trip id="motorcycle105" type="motorcycle_motorcycle" depart="1830.97" departLane="best" from="1289116082#9" to="-217685966"/>
    <trip id="motorcycle106" type="motorcycle_motorcycle" depart="1848.41" departLane="best" from="-23499290#7" to="-1247080836#2"/>
    <trip id="motorcycle107" type="motorcycle_motorcycle" depart="1865.85" departLane="best" from="-31251140#3" to="-23804689#1"/>
    <trip id="motorcycle108" type="motorcycle_motorcycle" depart="1883.29" departLane="best" from="1289116082#8" to="-184857720#0"/>
    <trip id="motorcycle110" type="motorcycle_motorcycle" depart="1918.16" departLane="best" from="1156837531#2" to="-33622433"/>
    <trip id="motorcycle111" type="motorcycle_motorcycle" depart="1935.60" departLane="best" from="23499291#0" to="995115344"/>
    <trip id="motorcycle112" type="motorcycle_motorcycle" depart="1953.04" departLane="best" from="217685960#1" to="-28295587#3"/>
    <trip id="motorcycle113" type="motorcycle_motorcycle" depart="1970.48" departLane="best" from="30247212#1" to="237621836#2"/>
    <trip id="motorcycle114" type="motorcycle_motorcycle" depart="1987.91" departLane="best" from="-1149857667#2" to="112716566#1"/>
    <trip id="motorcycle116" type="motorcycle_motorcycle" depart="2022.79" departLane="best" from="-1149857667#3" to="23499283#0"/>
    <trip id="motorcycle117" type="motorcycle_motorcycle" depart="2040.23" departLane="best" from="-30923610#8" to="-30923610#7"/>
    <trip id="motorcycle118" type="motorcycle_motorcycle" depart="2057.67" departLane="best" from="33622433" to="-207267789#1"/>
    <trip id="motorcycle120" type="motorcycle_motorcycle" depart="2092.54" departLane="best" from="-1323796135#1" to="995115342"/>
    <trip id="motorcycle121" type="motorcycle_motorcycle" depart="2109.98" departLane="best" from="207272730#2" to="-112716504"/>
    <trip id="motorcycle122" type="motorcycle_motorcycle" depart="2127.42" departLane="best" from="26808454#8" to="-28295587#2"/>
    <trip id="motorcycle123" type="motorcycle_motorcycle" depart="2144.86" departLane="best" from="-217684158#1" to="33622826#0"/>
    <trip id="motorcycle124" type="motorcycle_motorcycle" depart="2162.29" departLane="best" from="-1323796135#1" to="-1231346482#3"/>
    <trip id="motorcycle125" type="motorcycle_motorcycle" depart="2179.73" departLane="best" from="-1213248834#0" to="-30923610#3"/>
    <trip id="motorcycle126" type="motorcycle_motorcycle" depart="2197.17" departLane="best" from="27768976#2" to="1296936006#1"/>
    <trip id="motorcycle130" type="motorcycle_motorcycle" depart="2266.92" departLane="best" from="1058246676#0" to="23802570#1"/>
    <trip id="motorcycle131" type="motorcycle_motorcycle" depart="2284.36" departLane="best" from="237621834" to="1213248834#0"/>
    <trip id="motorcycle133" type="motorcycle_motorcycle" depart="2319.23" departLane="best" from="1149857667#5" to="-30977372"/>
    <trip id="motorcycle134" type="motorcycle_motorcycle" depart="2336.67" departLane="best" from="33622103#2" to="237621836#4"/>
    <trip id="motorcycle137" type="motorcycle_motorcycle" depart="2388.99" departLane="best" from="-30247208#2" to="33622102#2"/>
    <trip id="motorcycle139" type="motorcycle_motorcycle" depart="2423.86" departLane="best" from="33622102#1" to="-23075470#0"/>
    <trip id="motorcycle140" type="motorcycle_motorcycle" depart="2441.30" departLane="best" from="-23804689#6" to="-1213248833#0"/>
    <trip id="motorcycle141" type="motorcycle_motorcycle" depart="2458.74" departLane="best" from="23804689#6" to="-30977372"/>
    <trip id="motorcycle142" type="motorcycle_motorcycle" depart="2476.17" departLane="best" from="1039298156" to="-184857720#1"/>
    <trip id="motorcycle143" type="motorcycle_motorcycle" depart="2493.61" departLane="best" from="-207146758" to="33622114#7"/>
    <trip id="motorcycle145" type="motorcycle_motorcycle" depart="2528.49" departLane="best" from="-30972272" to="33622114#8"/>
    <trip id="motorcycle146" type="motorcycle_motorcycle" depart="2545.93" departLane="best" from="26550567" to="30247210"/>
    <trip id="motorcycle149" type="motorcycle_motorcycle" depart="2598.24" departLane="best" from="-23499286#1" to="26808454#6"/>
    <trip id="motorcycle153" type="motorcycle_motorcycle" depart="2667.99" departLane="best" from="566562032#2" to="-28161299#3"/>
    <trip id="motorcycle154" type="motorcycle_motorcycle" depart="2685.43" departLane="best" from="207269325#0" to="-995118259#1"/>
    <trip id="motorcycle155" type="motorcycle_motorcycle" depart="2702.87" departLane="best" from="-723381305" to="1190768504"/>
    <trip id="motorcycle156" type="motorcycle_motorcycle" depart="2720.30" departLane="best" from="-33622826#0" to="-1231346482#3"/>
    <trip id="motorcycle157" type="motorcycle_motorcycle" depart="2737.74" departLane="best" from="566562032#5" to="217684147"/>
    <trip id="motorcycle159" type="motorcycle_motorcycle" depart="2772.62" departLane="best" from="1213248834#2" to="112716539#1"/>
    <trip id="motorcycle160" type="motorcycle_motorcycle" depart="2790.06" departLane="best" from="23499290#4" to="-30247209#0"/>
    <trip id="motorcycle161" type="motorcycle_motorcycle" depart="2807.49" departLane="best" from="-723381305" to="237621836#6"/>
    <trip id="motorcycle163" type="motorcycle_motorcycle" depart="2842.37" departLane="best" from="-102030553#1" to="33622114#3"/>
    <trip id="motorcycle164" type="motorcycle_motorcycle" depart="2859.81" departLane="best" from="-1191351067" to="23499289#1"/>
    <trip id="motorcycle165" type="motorcycle_motorcycle" depart="2877.25" departLane="best" from="237621835#1" to="-217685960#0"/>
    <trip id="motorcycle166" type="motorcycle_motorcycle" depart="2894.68" departLane="best" from="-33622111" to="1149857667#0"/>
    <trip id="motorcycle167" type="motorcycle_motorcycle" depart="2912.12" departLane="best" from="217685955" to="30923610#7"/>
    <trip id="motorcycle168" type="motorcycle_motorcycle" depart="2929.56" departLane="best" from="23499289#2" to="-28295587#3"/>
    <trip id="motorcycle169" type="motorcycle_motorcycle" depart="2947.00" departLane="best" from="1078366795#1" to="-28295586#9"/>
    <trip id="motorcycle171" type="motorcycle_motorcycle" depart="2981.87" departLane="best" from="-33622826#1" to="217685967#1"/>
    <trip id="motorcycle172" type="motorcycle_motorcycle" depart="2999.31" departLane="best" from="-33622103#0" to="1330809710"/>
    <trip id="motorcycle174" type="motorcycle_motorcycle" depart="3034.19" departLane="best" from="-102030553#0" to="-28295586#2"/>
    <trip id="motorcycle176" type="motorcycle_motorcycle" depart="3069.06" departLane="best" from="-217684147" to="112716585#1"/>
    <trip id="motorcycle178" type="motorcycle_motorcycle" depart="3103.94" departLane="best" from="1130592206" to="33622102#3"/>
    <trip id="motorcycle180" type="motorcycle_motorcycle" depart="3138.81" departLane="best" from="-1188046649" to="-1149857667#8"/>
    <trip id="motorcycle181" type="motorcycle_motorcycle" depart="3156.25" departLane="best" from="207267781" to="-30977372"/>
    <trip id="motorcycle182" type="motorcycle_motorcycle" depart="3173.69" departLane="best" from="26808454#9" to="237621836#1"/>
    <trip id="motorcycle183" type="motorcycle_motorcycle" depart="3191.13" departLane="best" from="217685963" to="-23499286#2"/>
    <trip id="motorcycle185" type="motorcycle_motorcycle" depart="3226.00" departLane="best" from="23804689#1" to="112716623#1"/>
    <trip id="motorcycle187" type="motorcycle_motorcycle" depart="3260.88" departLane="best" from="1081351985#1" to="207146756#1"/>
    <trip id="motorcycle188" type="motorcycle_motorcycle" depart="3278.32" departLane="best" from="217685960#1" to="23499279#3"/>
    <trip id="motorcycle190" type="motorcycle_motorcycle" depart="3313.19" departLane="best" from="-217684151" to="-1089072535#0"/>
    <trip id="motorcycle191" type="motorcycle_motorcycle" depart="3330.63" departLane="best" from="237621836#2" to="23802569#1"/>
    <trip id="motorcycle192" type="motorcycle_motorcycle" depart="3348.07" departLane="best" from="-1213248834#0" to="112716509#1"/>
    <trip id="motorcycle193" type="motorcycle_motorcycle" depart="3365.50" departLane="best" from="-207272730#2" to="-397330148"/>
    <trip id="motorcycle194" type="motorcycle_motorcycle" depart="3382.94" departLane="best" from="1150114904#3" to="-112716581#0"/>
    <trip id="motorcycle195" type="motorcycle_motorcycle" depart="3400.38" departLane="best" from="23804689#6" to="-28295587#1"/>
    <trip id="motorcycle197" type="motorcycle_motorcycle" depart="3435.26" departLane="best" from="217685959#0" to="995115344"/>
    <trip id="motorcycle198" type="motorcycle_motorcycle" depart="3452.69" departLane="best" from="1289116082#9" to="397330141#2"/>
    <trip id="motorcycle199" type="motorcycle_motorcycle" depart="3470.13" departLane="best" from="-31251140#4" to="1328757700#0"/>
    <trip id="motorcycle201" type="motorcycle_motorcycle" depart="3505.01" departLane="best" from="28161299#2" to="1213248833#1"/>
    <trip id="motorcycle202" type="motorcycle_motorcycle" depart="3522.45" departLane="best" from="-33622101#1" to="237621835#2"/>
    <trip id="motorcycle203" type="motorcycle_motorcycle" depart="3539.88" departLane="best" from="-23804689#3" to="723314700#1"/>
    <trip id="motorcycle204" type="motorcycle_motorcycle" depart="3557.32" departLane="best" from="237621839#4" to="1150114905"/>
    <trip id="motorcycle206" type="motorcycle_motorcycle" depart="3592.20" departLane="best" from="-1149857667#7" to="-28295586#12"/>
</routes>
