<?xml version="1.0" encoding="UTF-8"?>

<!-- generated on 2025-01-24 16:54:07.352876 by osmWebWizard.py UNKNOWN
<configuration>
    <net-file value="/home/pulkitshringi/Sumo/2025-01-24-16-53-59/osm.net.xml.gz"/>
    <output-trip-file value="/home/pulkitshringi/Sumo/2025-01-24-16-53-59/osm.passenger.trips.xml"/>
    <route-file value="/home/pulkitshringi/Sumo/2025-01-24-16-53-59/osm.passenger.rou.xml"/>
    <prefix value="veh"/>
    <trip-attributes value="departLane=&quot;best&quot;"/>
    <fringe-start-attributes value="departSpeed=&quot;max&quot;"/>
    <vehicle-class value="passenger"/>
    <lanes value="True"/>
    <fringe-factor value="5"/>
    <allow-fringe.min-length value="1000.0"/>
    <via-edge-types value="highway.motorway,highway.motorway_link,highway.trunk_link,highway.primary_link,highway.secondary_link,highway.tertiary_link"/>
    <min-distance value="300.0"/>
    <min-distance.fringe value="10.0"/>
    <remove-loops value="True"/>
    <validate value="True"/>
    <insertion-density value="100.0"/>
</configuration>
-->

<!-- generated on 2025-01-24 16:54:07 by Eclipse SUMO duarouter Version 1.21.0
<duarouterConfiguration xmlns:xsi="http://www.w3.org/2001/XMLSchema-instance" xsi:noNamespaceSchemaLocation="http://sumo.dlr.de/xsd/duarouterConfiguration.xsd">

    <input>
        <net-file value="/home/pulkitshringi/Sumo/2025-01-24-16-53-59/osm.net.xml.gz"/>
        <route-files value="/home/pulkitshringi/Sumo/2025-01-24-16-53-59/osm.passenger.trips.xml"/>
    </input>

    <output>
        <output-file value="/home/pulkitshringi/Sumo/2025-01-24-16-53-59/osm.passenger.trips.xml.tmp"/>
        <alternatives-output value="NUL"/>
        <write-trips value="true"/>
    </output>

    <processing>
        <remove-loops value="true"/>
    </processing>

    <time>
        <begin value="0.0"/>
        <end value="3600.0"/>
    </time>

    <report>
        <no-warnings value="true"/>
        <ignore-errors value="true"/>
        <no-step-log value="true"/>
    </report>

</duarouterConfiguration>
-->

<routes xmlns:xsi="http://www.w3.org/2001/XMLSchema-instance" xsi:noNamespaceSchemaLocation="http://sumo.dlr.de/xsd/routes_file.xsd">
    <vType id="veh_passenger" vClass="passenger"/>
    <trip id="veh0" type="veh_passenger" depart="0.00" departLane="best" from="217684153" to="-112716550"/>
    <trip id="veh1" type="veh_passenger" depart="0.70" departLane="best" from="237621836#6" to="23499285#0"/>
    <trip id="veh2" type="veh_passenger" depart="1.41" departLane="best" from="-31251140#1" to="-1191363305"/>
    <trip id="veh3" type="veh_passenger" depart="2.11" departLane="best" from="1149819097#0" to="-112716562#0"/>
    <trip id="veh6" type="veh_passenger" depart="4.23" departLane="best" from="217685960#0" to="1253199946"/>
    <trip id="veh8" type="veh_passenger" depart="5.64" departLane="best" from="26808454#3" to="-1089072535#0"/>
    <trip id="veh9" type="veh_passenger" depart="6.34" departLane="best" from="26808454#13" to="23499289#5"/>
    <trip id="veh10" type="veh_passenger" depart="7.05" departLane="best" from="-995115341" to="-207272730#1"/>
    <trip id="veh11" type="veh_passenger" depart="7.75" departLane="best" from="397331963" to="-397330148"/>
    <trip id="veh13" type="veh_passenger" depart="9.16" departLane="best" from="26808454#13" to="237621836#3"/>
    <trip id="veh15" type="veh_passenger" depart="10.57" departLane="best" departSpeed="max" from="27768977" to="207269318#0"/>
    <trip id="veh16" type="veh_passenger" depart="11.27" departLane="best" from="-23499290#2" to="-112716566#3"/>
    <trip id="veh19" type="veh_passenger" depart="13.39" departLane="best" from="-1231346482#1" to="30247208#4"/>
    <trip id="veh20" type="veh_passenger" depart="14.09" departLane="best" from="207272730#2" to="1039298154"/>
    <trip id="veh22" type="veh_passenger" depart="15.50" departLane="best" from="217685959#0" to="206540074"/>
    <trip id="veh23" type="veh_passenger" depart="16.21" departLane="best" from="217685966" to="237621836#3"/>
    <trip id="veh24" type="veh_passenger" depart="16.91" departLane="best" from="-217685956" to="1089072535#1"/>
    <trip id="veh25" type="veh_passenger" depart="17.62" departLane="best" from="-995115342" to="217684158#1"/>
    <trip id="veh26" type="veh_passenger" depart="18.32" departLane="best" from="1289116082#1" to="-23499288#0"/>
    <trip id="veh27" type="veh_passenger" depart="19.03" departLane="best" from="-28161299#3" to="241009507"/>
    <trip id="veh29" type="veh_passenger" depart="20.44" departLane="best" from="-33622110#0" to="-28295587#4"/>
    <trip id="veh30" type="veh_passenger" depart="21.14" departLane="best" from="30247212#3" to="-33622103#0"/>
    <trip id="veh31" type="veh_passenger" depart="21.85" departLane="best" from="217685967#0" to="112716549#2"/>
    <trip id="veh32" type="veh_passenger" depart="22.55" departLane="best" from="33622109" to="1149819100#5"/>
    <trip id="veh33" type="veh_passenger" depart="23.25" departLane="best" from="30247206#1" to="-28161299#1"/>
    <trip id="veh34" type="veh_passenger" depart="23.96" departLane="best" from="1296795889" to="33622102#0"/>
    <trip id="veh37" type="veh_passenger" depart="26.07" departLane="best" from="-1213248833#1" to="-112716581#1"/>
    <trip id="veh38" type="veh_passenger" depart="26.78" departLane="best" from="-1268975699" to="207270093"/>
    <trip id="veh39" type="veh_passenger" depart="27.48" departLane="best" from="26550567" to="-112716595#0"/>
    <trip id="veh40" type="veh_passenger" depart="28.19" departLane="best" from="-1149857667#1" to="-112716508#0"/>
    <trip id="veh42" type="veh_passenger" depart="29.60" departLane="best" from="566562032#4" to="-30247206#1"/>
    <trip id="veh44" type="veh_passenger" depart="31.01" departLane="best" from="23499285#1" to="1237642829"/>
    <trip id="veh45" type="veh_passenger" depart="31.71" departLane="best" from="-30247206#2" to="-217685955"/>
    <trip id="veh48" type="veh_passenger" depart="33.82" departLane="best" from="30247212#2" to="-28295587#0"/>
    <trip id="veh49" type="veh_passenger" depart="34.53" departLane="best" from="-26550573#0" to="-23075452#0"/>
    <trip id="veh50" type="veh_passenger" depart="35.23" departLane="best" from="33622107#2" to="-30247212#1"/>
    <trip id="veh51" type="veh_passenger" depart="35.94" departLane="best" from="-31251140#7" to="-217684158#0"/>
    <trip id="veh52" type="veh_passenger" depart="36.64" departLane="best" from="-206530977#1" to="-207270066#1"/>
    <trip id="veh53" type="veh_passenger" depart="37.35" departLane="best" departSpeed="max" from="23802570#0" to="1247080836#0"/>
    <trip id="veh55" type="veh_passenger" depart="38.76" departLane="best" from="-102030553#0" to="-33622110#0"/>
    <trip id="veh57" type="veh_passenger" depart="40.17" departLane="best" from="-30923610#1" to="27768976#1"/>
    <trip id="veh58" type="veh_passenger" depart="40.87" departLane="best" from="-33622103#2" to="-112716623#0"/>
    <trip id="veh59" type="veh_passenger" depart="41.58" departLane="best" from="-30923610#1" to="397330143#0"/>
    <trip id="veh60" type="veh_passenger" depart="42.28" departLane="best" from="-1207215984" to="-1149857667#8"/>
    <trip id="veh61" type="veh_passenger" depart="42.99" departLane="best" from="1149857667#7" to="23804689#0"/>
    <trip id="veh62" type="veh_passenger" depart="43.69" departLane="best" from="23802570#1" to="-184857720#0"/>
    <trip id="veh64" type="veh_passenger" depart="45.10" departLane="best" from="1149819097#0" to="23499291#0"/>
    <trip id="veh65" type="veh_passenger" depart="45.80" departLane="best" from="1237642823" to="237621836#3"/>
    <trip id="veh66" type="veh_passenger" depart="46.51" departLane="best" from="-23499290#5" to="-33622102#2"/>
    <trip id="veh67" type="veh_passenger" depart="47.21" departLane="best" from="995118259#2" to="217685964"/>
    <trip id="veh72" type="veh_passenger" depart="50.74" departLane="best" from="-1156837531#0" to="-23075452#4"/>
    <trip id="veh75" type="veh_passenger" depart="52.85" departLane="best" from="27768976#2" to="23499279#4"/>
    <trip id="veh76" type="veh_passenger" depart="53.56" departLane="best" from="23804689#4" to="-206540071#0"/>
    <trip id="veh79" type="veh_passenger" depart="55.67" departLane="best" from="26808454#13" to="237621835#5"/>
    <trip id="veh80" type="veh_passenger" depart="56.37" departLane="best" from="-1215008046" to="1130592207"/>
    <trip id="veh81" type="veh_passenger" depart="57.08" departLane="best" from="1149819097#1" to="1149857663#0"/>
    <trip id="veh82" type="veh_passenger" depart="57.78" departLane="best" from="237621836#2" to="23499283#0"/>
    <trip id="veh83" type="veh_passenger" depart="58.49" departLane="best" from="-723381305" to="-1213248834#2"/>
    <trip id="veh86" type="veh_passenger" depart="60.60" departLane="best" from="-23499286#0" to="1149819100#0"/>
    <trip id="veh87" type="veh_passenger" depart="61.31" departLane="best" from="1149819097#0" to="-30247209#0"/>
    <trip id="veh90" type="veh_passenger" depart="63.42" departLane="best" from="-1247093646#1" to="-112716587#0"/>
    <trip id="veh93" type="veh_passenger" depart="65.54" departLane="best" from="1149857667#5" to="-23499291#2"/>
    <trip id="veh96" type="veh_passenger" depart="67.65" departLane="best" from="1149857663#0" to="112716595#1"/>
    <trip id="veh97" type="veh_passenger" depart="68.35" departLane="best" from="48057014" to="-1343690158"/>
    <trip id="veh98" type="veh_passenger" depart="69.06" departLane="best" from="-217684151" to="30972272"/>
    <trip id="veh99" type="veh_passenger" depart="69.76" departLane="best" from="1237642828" to="237621839#2"/>
    <trip id="veh101" type="veh_passenger" depart="71.17" departLane="best" departSpeed="max" from="1187413810#0" to="-28295586#9"/>
    <trip id="veh102" type="veh_passenger" depart="71.88" departLane="best" from="-217684153" to="566562032#0"/>
    <trip id="veh103" type="veh_passenger" depart="72.58" departLane="best" from="-1189099843" to="-23075470#1"/>
    <trip id="veh104" type="veh_passenger" depart="73.29" departLane="best" from="1313080418" to="23499283#2"/>
    <trip id="veh105" type="veh_passenger" depart="73.99" departLane="best" from="-27768976#1" to="1323796135#0"/>
    <trip id="veh106" type="veh_passenger" depart="74.70" departLane="best" from="1313080418" to="207269318#1"/>
    <trip id="veh107" type="veh_passenger" depart="75.40" departLane="best" from="1130592207" to="1296936006#0"/>
    <trip id="veh108" type="veh_passenger" depart="76.11" departLane="best" from="237621836#4" to="33622826#1"/>
    <trip id="veh109" type="veh_passenger" depart="76.81" departLane="best" from="-23499290#8" to="237621835#1"/>
    <trip id="veh110" type="veh_passenger" depart="77.52" departLane="best" from="-27768976#2" to="112716549#2"/>
    <trip id="veh111" type="veh_passenger" depart="78.22" departLane="best" from="23499279#4" to="31251140#0"/>
    <trip id="veh112" type="veh_passenger" depart="78.92" departLane="best" from="33622110#1" to="237621839#4"/>
    <trip id="veh114" type="veh_passenger" depart="80.33" departLane="best" from="-1156837531#1" to="-23499291#2"/>
    <trip id="veh115" type="veh_passenger" depart="81.04" departLane="best" from="30247206#1" to="33622436#0"/>
    <trip id="veh116" type="veh_passenger" depart="81.74" departLane="best" from="-1089072535#1" to="217684147"/>
    <trip id="veh117" type="veh_passenger" depart="82.45" departLane="best" departSpeed="max" from="27768977" to="23499290#4"/>
    <trip id="veh119" type="veh_passenger" depart="83.86" departLane="best" from="217685966" to="1089072535#1"/>
    <trip id="veh120" type="veh_passenger" depart="84.56" departLane="best" from="26808454#8" to="31251137"/>
    <trip id="veh121" type="veh_passenger" depart="85.27" departLane="best" from="-207272730#0" to="33622829"/>
    <trip id="veh122" type="veh_passenger" depart="85.97" departLane="best" from="-207146758" to="-1296936005"/>
    <trip id="veh124" type="veh_passenger" depart="87.38" departLane="best" from="-30247209#1" to="206530977#1"/>
    <trip id="veh125" type="veh_passenger" depart="88.09" departLane="best" from="237621835#1" to="-23499290#3"/>
    <trip id="veh126" type="veh_passenger" depart="88.79" departLane="best" from="207272730#1" to="-28295587#0"/>
    <trip id="veh127" type="veh_passenger" depart="89.50" departLane="best" from="1149857667#8" to="33622106#0"/>
    <trip id="veh129" type="veh_passenger" depart="90.90" departLane="best" from="1149819097#1" to="30247208#3"/>
    <trip id="veh130" type="veh_passenger" depart="91.61" departLane="best" from="1058246676#0" to="241009507"/>
    <trip id="veh131" type="veh_passenger" depart="92.31" departLane="best" from="-217684147" to="-28295586#8"/>
    <trip id="veh133" type="veh_passenger" depart="93.72" departLane="best" from="1149819097#4" to="-112716508#0"/>
    <trip id="veh134" type="veh_passenger" depart="94.43" departLane="best" from="-1188046649" to="30923610#8"/>
    <trip id="veh135" type="veh_passenger" depart="95.13" departLane="best" from="33622102#3" to="1255590997"/>
    <trip id="veh136" type="veh_passenger" depart="95.84" departLane="best" departSpeed="max" from="27768977" to="1296936005"/>
    <trip id="veh137" type="veh_passenger" depart="96.54" departLane="best" from="-207270066#1" to="-184857720#0"/>
    <trip id="veh138" type="veh_passenger" depart="97.25" departLane="best" from="26808454#1" to="-30247206#1"/>
    <trip id="veh139" type="veh_passenger" depart="97.95" departLane="best" from="-33622101#1" to="-23499290#9"/>
    <trip id="veh143" type="veh_passenger" depart="100.77" departLane="best" from="-217684151" to="33622432"/>
    <trip id="veh144" type="veh_passenger" depart="101.47" departLane="best" from="30247206#2" to="668451836"/>
    <trip id="veh145" type="veh_passenger" depart="102.18" departLane="best" from="26808454#4" to="30923610#7"/>
    <trip id="veh147" type="veh_passenger" depart="103.59" departLane="best" from="26808454#4" to="-28295587#3"/>
    <trip id="veh149" type="veh_passenger" depart="105.00" departLane="best" from="30247210" to="-28295587#4"/>
    <trip id="veh153" type="veh_passenger" depart="107.82" departLane="best" from="397330148" to="30247208#3"/>
    <trip id="veh154" type="veh_passenger" depart="108.52" departLane="best" from="566562032#2" to="-30247209#0"/>
    <trip id="veh157" type="veh_passenger" depart="110.64" departLane="best" from="-33622828" to="-1296936005"/>
    <trip id="veh158" type="veh_passenger" depart="111.34" departLane="best" from="566562032#4" to="-23075452#0"/>
    <trip id="veh159" type="veh_passenger" depart="112.05" departLane="best" from="566562032#0" to="-28295587#1"/>
    <trip id="veh160" type="veh_passenger" depart="112.75" departLane="best" from="237621836#2" to="33622102#3"/>
    <trip id="veh161" type="veh_passenger" depart="113.45" departLane="best" from="184857720#0" to="1191363305"/>
    <trip id="veh163" type="veh_passenger" depart="114.86" departLane="best" from="-102030553#1" to="33622114#6"/>
    <trip id="veh166" type="veh_passenger" depart="116.98" departLane="best" from="-23075452#5" to="-33622433"/>
    <trip id="veh167" type="veh_passenger" depart="117.68" departLane="best" from="-33622109" to="-28295586#5"/>
    <trip id="veh168" type="veh_passenger" depart="118.39" departLane="best" from="237621835#3" to="31251140#0"/>
    <trip id="veh169" type="veh_passenger" depart="119.09" departLane="best" from="-33622106#0" to="-112716562#6"/>
    <trip id="veh171" type="veh_passenger" depart="120.50" departLane="best" from="-206530977#1" to="-112716587#0"/>
    <trip id="veh172" type="veh_passenger" depart="121.21" departLane="best" from="-33622829" to="23499285#0"/>
    <trip id="veh173" type="veh_passenger" depart="121.91" departLane="best" from="-33622102#2" to="-207269298#0"/>
    <trip id="veh174" type="veh_passenger" depart="122.62" departLane="best" from="-33622101#1" to="1268975699"/>
    <trip id="veh175" type="veh_passenger" depart="123.32" departLane="best" from="-102030553#0" to="30923610#0"/>
    <trip id="veh176" type="veh_passenger" depart="124.02" departLane="best" from="217685966" to="1149819100#8"/>
    <trip id="veh178" type="veh_passenger" depart="125.43" departLane="best" departSpeed="max" from="1149857666#0" to="33622102#3"/>
    <trip id="veh179" type="veh_passenger" depart="126.14" departLane="best" from="26808454#1" to="-217685959#0"/>
    <trip id="veh181" type="veh_passenger" depart="127.55" departLane="best" from="-207270093" to="33622829"/>
    <trip id="veh182" type="veh_passenger" depart="128.25" departLane="best" from="26808454#8" to="237621839#3"/>
    <trip id="veh184" type="veh_passenger" depart="129.66" departLane="best" from="-23499290#3" to="-112716549#2"/>
    <trip id="veh188" type="veh_passenger" depart="132.48" departLane="best" from="23499288#1" to="23499289#5"/>
    <trip id="veh189" type="veh_passenger" depart="133.19" departLane="best" from="217685967#1" to="-1058246676#1"/>
    <trip id="veh190" type="veh_passenger" depart="133.89" departLane="best" from="237621839#3" to="241009507"/>
    <trip id="veh191" type="veh_passenger" depart="134.59" departLane="best" from="-1247093646#1" to="112716596#1"/>
    <trip id="veh192" type="veh_passenger" depart="135.30" departLane="best" from="-23075452#2" to="-48057020"/>
    <trip id="veh193" type="veh_passenger" depart="136.00" departLane="best" from="1149857663#0" to="26808454#1"/>
    <trip id="veh194" type="veh_passenger" depart="136.71" departLane="best" from="1313080418" to="397330144#1"/>
    <trip id="veh195" type="veh_passenger" depart="137.41" departLane="best" from="-31251140#0" to="207267781"/>
    <trip id="veh196" type="veh_passenger" depart="138.12" departLane="best" departSpeed="max" from="27768977" to="1268975699"/>
    <trip id="veh197" type="veh_passenger" depart="138.82" departLane="best" from="-31251140#7" to="237621839#0"/>
    <trip id="veh198" type="veh_passenger" depart="139.53" departLane="best" departSpeed="max" from="1149857666#0" to="-28295586#6"/>
    <trip id="veh200" type="veh_passenger" depart="140.94" departLane="best" from="23802570#1" to="1213248834#0"/>
    <trip id="veh201" type="veh_passenger" depart="141.64" departLane="best" from="207269329" to="30247208#0"/>
    <trip id="veh202" type="veh_passenger" depart="142.35" departLane="best" from="-1189098501" to="-30247212#3"/>
    <trip id="veh203" type="veh_passenger" depart="143.05" departLane="best" from="30247209#0" to="33622106#3"/>
    <trip id="veh204" type="veh_passenger" depart="143.76" departLane="best" from="1237642823" to="207267781"/>
    <trip id="veh205" type="veh_passenger" depart="144.46" departLane="best" from="-26550573#0" to="23499289#3"/>
    <trip id="veh206" type="veh_passenger" depart="145.17" departLane="best" from="23499290#4" to="-1149857667#0"/>
    <trip id="veh209" type="veh_passenger" depart="147.28" departLane="best" from="1130592207" to="33622106#0"/>
    <trip id="veh210" type="veh_passenger" depart="147.98" departLane="best" from="1296795889" to="23499289#3"/>
    <trip id="veh213" type="veh_passenger" depart="150.10" departLane="best" from="1078366795#1" to="237621839#4"/>
    <trip id="veh215" type="veh_passenger" depart="151.51" departLane="best" from="1130592206" to="237621839#2"/>
    <trip id="veh216" type="veh_passenger" depart="152.21" departLane="best" from="-1247080836#0" to="206530977#0"/>
    <trip id="veh218" type="veh_passenger" depart="153.62" departLane="best" from="237621836#7" to="-112716562#0"/>
    <trip id="veh219" type="veh_passenger" depart="154.33" departLane="best" from="-723381305" to="23499285#2"/>
    <trip id="veh221" type="veh_passenger" depart="155.74" departLane="best" departSpeed="max" from="1149857666#0" to="-184857720#0"/>
    <trip id="veh222" type="veh_passenger" depart="156.44" departLane="best" from="-207269298#2" to="-112716554#1"/>
    <trip id="veh224" type="veh_passenger" depart="157.85" departLane="best" from="-207267789#1" to="1149819100#6"/>
    <trip id="veh226" type="veh_passenger" depart="159.26" departLane="best" from="23804689#1" to="33622113#0"/>
    <trip id="veh227" type="veh_passenger" depart="159.96" departLane="best" departSpeed="max" from="23802570#0" to="1089072535#1"/>
    <trip id="veh228" type="veh_passenger" depart="160.67" departLane="best" from="237621839#3" to="-27768976#1"/>
    <trip id="veh233" type="veh_passenger" depart="164.19" departLane="best" from="217685963" to="237621839#5"/>
    <trip id="veh234" type="veh_passenger" depart="164.90" departLane="best" departSpeed="max" from="397330144#0" to="-23499288#1"/>
    <trip id="veh236" type="veh_passenger" depart="166.31" departLane="best" from="-206530977#0" to="23499279#5"/>
    <trip id="veh237" type="veh_passenger" depart="167.01" departLane="best" from="1289116082#12" to="-23804689#2"/>
    <trip id="veh238" type="veh_passenger" depart="167.72" departLane="best" from="23499289#5" to="23804689#7"/>
    <trip id="veh239" type="veh_passenger" depart="168.42" departLane="best" from="217685960#0" to="206540073"/>
    <trip id="veh241" type="veh_passenger" depart="169.83" departLane="best" from="26808454#9" to="566562032#2"/>
    <trip id="veh242" type="veh_passenger" depart="170.53" departLane="best" from="-1255590997" to="-112716550"/>
    <trip id="veh243" type="veh_passenger" depart="171.24" departLane="best" from="-33622107#0" to="23499285#0"/>
    <trip id="veh244" type="veh_passenger" depart="171.94" departLane="best" from="48057014" to="-112716550"/>
    <trip id="veh246" type="veh_passenger" depart="173.35" departLane="best" from="23499289#0" to="207270066#1"/>
    <trip id="veh247" type="veh_passenger" depart="174.06" departLane="best" from="-1231346483" to="241009507"/>
    <trip id="veh248" type="veh_passenger" depart="174.76" departLane="best" from="-1330809710" to="723381305"/>
    <trip id="veh250" type="veh_passenger" depart="176.17" departLane="best" from="1149819097#4" to="1058246676#0"/>
    <trip id="veh251" type="veh_passenger" depart="176.88" departLane="best" departSpeed="max" from="1187413810#0" to="48132792"/>
    <trip id="veh253" type="veh_passenger" depart="178.29" departLane="best" from="1247093646#0" to="566562032#0"/>
    <trip id="veh254" type="veh_passenger" depart="178.99" departLane="best" from="207272730#2" to="27768976#0"/>
    <trip id="veh255" type="veh_passenger" depart="179.69" departLane="best" from="-23499290#5" to="1149819097#1"/>
    <trip id="veh256" type="veh_passenger" depart="180.40" departLane="best" from="237621836#4" to="566562032#2"/>
    <trip id="veh257" type="veh_passenger" depart="181.10" departLane="best" from="-30247208#2" to="-28295586#8"/>
    <trip id="veh258" type="veh_passenger" depart="181.81" departLane="best" departSpeed="max" from="27768977" to="1191363304"/>
    <trip id="veh259" type="veh_passenger" depart="182.51" departLane="best" from="-30923610#4" to="-27768976#2"/>
    <trip id="veh260" type="veh_passenger" depart="183.22" departLane="best" departSpeed="max" from="1149857666#0" to="207146756#1"/>
    <trip id="veh262" type="veh_passenger" depart="184.63" departLane="best" from="23804689#2" to="26550573#1"/>
    <trip id="veh263" type="veh_passenger" depart="185.33" departLane="best" from="-995115341" to="30923610#6"/>
    <trip id="veh265" type="veh_passenger" depart="186.74" departLane="best" from="-1207215984" to="237621835#5"/>
    <trip id="veh266" type="veh_passenger" depart="187.45" departLane="best" from="1149857667#8" to="23802570#1"/>
    <trip id="veh267" type="veh_passenger" depart="188.15" departLane="best" from="23499289#0" to="-31251140#5"/>
    <trip id="veh268" type="veh_passenger" depart="188.86" departLane="best" from="1289116082#9" to="1149857665"/>
    <trip id="veh269" type="veh_passenger" depart="189.56" departLane="best" from="-1215008046" to="112716596#1"/>
    <trip id="veh270" type="veh_passenger" depart="190.27" departLane="best" from="237621839#0" to="-33622433"/>
    <trip id="veh271" type="veh_passenger" depart="190.97" departLane="best" from="23499290#1" to="-30247206#0"/>
    <trip id="veh272" type="veh_passenger" depart="191.67" departLane="best" from="-23499286#2" to="1323796135#0"/>
    <trip id="veh273" type="veh_passenger" depart="192.38" departLane="best" from="1231346482#3" to="-23804689#1"/>
    <trip id="veh274" type="veh_passenger" depart="193.08" departLane="best" from="-23499284" to="-23804689#1"/>
    <trip id="veh275" type="veh_passenger" depart="193.79" departLane="best" from="1149857667#4" to="237621836#1"/>
    <trip id="veh276" type="veh_passenger" depart="194.49" departLane="best" from="-668451836" to="1230572507#0"/>
    <trip id="veh277" type="veh_passenger" depart="195.20" departLane="best" from="-30923610#4" to="1253199946"/>
    <trip id="veh279" type="veh_passenger" depart="196.61" departLane="best" from="-23075470#0" to="-112716511#0"/>
    <trip id="veh280" type="veh_passenger" depart="197.31" departLane="best" from="1231346482#2" to="30247208#0"/>
    <trip id="veh281" type="veh_passenger" depart="198.02" departLane="best" from="23499289#3" to="1335355296"/>
    <trip id="veh282" type="veh_passenger" depart="198.72" departLane="best" from="30247208#3" to="1150114904#3"/>
    <trip id="veh284" type="veh_passenger" depart="200.13" departLane="best" departSpeed="max" from="1149857666#0" to="1149819097#4"/>
    <trip id="veh285" type="veh_passenger" depart="200.84" departLane="best" from="-23499283#2" to="-112716587#0"/>
    <trip id="veh286" type="veh_passenger" depart="201.54" departLane="best" from="397330139" to="1149857667#1"/>
    <trip id="veh287" type="veh_passenger" depart="202.24" departLane="best" from="27174389#1" to="-112716562#1"/>
    <trip id="veh288" type="veh_passenger" depart="202.95" departLane="best" from="-1188039317" to="207272730#0"/>
    <trip id="veh290" type="veh_passenger" depart="204.36" departLane="best" from="1289116082#12" to="-31251140#3"/>
    <trip id="veh291" type="veh_passenger" depart="205.06" departLane="best" from="995118259#1" to="30923610#1"/>
    <trip id="veh292" type="veh_passenger" depart="205.77" departLane="best" from="23802570#1" to="206540071#1"/>
    <trip id="veh295" type="veh_passenger" depart="207.88" departLane="best" from="-995115344" to="-31251140#5"/>
    <trip id="veh296" type="veh_passenger" depart="208.59" departLane="best" from="-207269298#1" to="207146756#0"/>
    <trip id="veh297" type="veh_passenger" depart="209.29" departLane="best" from="237621836#7" to="397330143#0"/>
    <trip id="veh299" type="veh_passenger" depart="210.70" departLane="best" from="1058246676#0" to="1149819100#1"/>
    <trip id="veh300" type="veh_passenger" depart="211.41" departLane="best" from="1301526051" to="-1213248833#2"/>
    <trip id="veh301" type="veh_passenger" depart="212.11" departLane="best" from="-26550573#0" to="23499290#7"/>
    <trip id="veh302" type="veh_passenger" depart="212.82" departLane="best" from="-23499290#1" to="1149819100#3"/>
    <trip id="veh303" type="veh_passenger" depart="213.52" departLane="best" from="23499288#0" to="33622114#4"/>
    <trip id="veh305" type="veh_passenger" depart="214.93" departLane="best" from="-23075452#2" to="33622826#0"/>
    <trip id="veh306" type="veh_passenger" depart="215.63" departLane="best" from="1149819097#1" to="1253199946"/>
    <trip id="veh307" type="veh_passenger" depart="216.34" departLane="best" from="217685959#0" to="33622107#0"/>
    <trip id="veh309" type="veh_passenger" depart="217.75" departLane="best" from="-30923610#9" to="1330809710"/>
    <trip id="veh310" type="veh_passenger" depart="218.45" departLane="best" from="23499288#1" to="23499290#0"/>
    <trip id="veh311" type="veh_passenger" depart="219.16" departLane="best" from="1150114904#3" to="1189099328"/>
    <trip id="veh312" type="veh_passenger" depart="219.86" departLane="best" from="112716562#9" to="1138236586"/>
    <trip id="veh313" type="veh_passenger" depart="220.57" departLane="best" from="-33622826#0" to="-28295586#0"/>
    <trip id="veh315" type="veh_passenger" depart="221.98" departLane="best" departSpeed="max" from="397330144#0" to="33622436#0"/>
    <trip id="veh318" type="veh_passenger" depart="224.09" departLane="best" departSpeed="max" from="1149857666#0" to="217685967#0"/>
    <trip id="veh319" type="veh_passenger" depart="224.79" departLane="best" from="33622110#1" to="-23075452#3"/>
    <trip id="veh321" type="veh_passenger" depart="226.20" departLane="best" from="1150114904#1" to="30923610#3"/>
    <trip id="veh323" type="veh_passenger" depart="227.61" departLane="best" from="23499279#2" to="-28295587#4"/>
    <trip id="veh324" type="veh_passenger" depart="228.32" departLane="best" from="-30923610#9" to="397330143#0"/>
    <trip id="veh326" type="veh_passenger" depart="229.73" departLane="best" from="1149857663#0" to="-33622103#0"/>
    <trip id="veh327" type="veh_passenger" depart="230.43" departLane="best" from="-33622826#1" to="566562032#4"/>
    <trip id="veh329" type="veh_passenger" depart="231.84" departLane="best" from="-995115341" to="23075452#2"/>
    <trip id="veh330" type="veh_passenger" depart="232.55" departLane="best" from="1237642828" to="-112716566#0"/>
    <trip id="veh331" type="veh_passenger" depart="233.25" departLane="best" from="-23499285#1" to="1039298150#0"/>
    <trip id="veh332" type="veh_passenger" depart="233.96" departLane="best" from="237621839#5" to="207270066#0"/>
    <trip id="veh333" type="veh_passenger" depart="234.66" departLane="best" departSpeed="max" from="23802570#0" to="23499290#3"/>
    <trip id="veh334" type="veh_passenger" depart="235.37" departLane="best" from="1247093646#0" to="33622114#8"/>
    <trip id="veh336" type="veh_passenger" depart="236.77" departLane="best" from="-1330809710" to="566562032#5"/>
    <trip id="veh338" type="veh_passenger" depart="238.18" departLane="best" from="-1255590997" to="-1213248833#1"/>