<?xml version="1.0" encoding="UTF-8"?>

<!-- generated on 2025-01-24 16:54:06.118557 by osmWebWizard.py UNKNOWN
<configuration>
    <net-file value="/home/pulkitshringi/Sumo/2025-01-24-16-53-59/osm.net.xml.gz"/>
    <output-trip-file value="/home/pulkitshringi/Sumo/2025-01-24-16-53-59/osm.bus.trips.xml"/>
    <route-file value="/home/pulkitshringi/Sumo/2025-01-24-16-53-59/osm.bus.rou.xml"/>
    <prefix value="bus"/>
    <trip-attributes value="departLane=&quot;best&quot;"/>
    <fringe-start-attributes value="departSpeed=&quot;max&quot;"/>
    <vehicle-class value="bus"/>
    <fringe-factor value="5"/>
    <vclass value="bus"/>
    <via-edge-types value="highway.motorway,highway.motorway_link,highway.trunk_link,highway.primary_link,highway.secondary_link,highway.tertiary_link"/>
    <min-distance value="600.0"/>
    <min-distance.fringe value="10.0"/>
    <remove-loops value="True"/>
    <validate value="True"/>
    <insertion-density value="4.0"/>
</configuration>
-->

<!-- generated on 2025-01-24 16:54:06 by Eclipse SUMO duarouter Version 1.21.0
<duarouterConfiguration xmlns:xsi="http://www.w3.org/2001/XMLSchema-instance" xsi:noNamespaceSchemaLocation="http://sumo.dlr.de/xsd/duarouterConfiguration.xsd">

    <input>
        <net-file value="/home/pulkitshringi/Sumo/2025-01-24-16-53-59/osm.net.xml.gz"/>
        <route-files value="/home/pulkitshringi/Sumo/2025-01-24-16-53-59/osm.bus.trips.xml"/>
    </input>

    <output>
        <output-file value="/home/pulkitshringi/Sumo/2025-01-24-16-53-59/osm.bus.trips.xml.tmp"/>
        <alternatives-output value="NUL"/>
        <write-trips value="true"/>
    </output>

    <processing>
        <remove-loops value="true"/>
    </processing>

    <time>
        <begin value="0.0"/>
        <end value="3600.0"/>
    </time>

    <report>
        <no-warnings value="true"/>
        <ignore-errors value="true"/>
        <no-step-log value="true"/>
    </report>

</duarouterConfiguration>
-->

<routes xmlns:xsi="http://www.w3.org/2001/XMLSchema-instance" xsi:noNamespaceSchemaLocation="http://sumo.dlr.de/xsd/routes_file.xsd">
    <vType id="bus_bus" vClass="bus"/>
    <trip id="bus0" type="bus_bus" depart="0.00" departLane="best" from="207269329" to="-112716549#2"/>
    <trip id="bus2" type="bus_bus" depart="35.23" departLane="best" from="237621835#3" to="23075452#0"/>
    <trip id="bus3" type="bus_bus" depart="52.85" departLane="best" from="-31251140#7" to="1188218785"/>
    <trip id="bus4" type="bus_bus" depart="70.47" departLane="best" from="-217684147" to="30923610#5"/>
    <trip id="bus6" type="bus_bus" depart="105.70" departLane="best" from="26808454#13" to="23499283#2"/>
    <trip id="bus7" type="bus_bus" depart="123.32" departLane="best" from="-1191351067" to="668451836"/>
    <trip id="bus9" type="bus_bus" depart="158.55" departLane="best" from="28161299#3" to="206540071#0"/>
    <trip id="bus11" type="bus_bus" depart="193.79" departLane="best" from="-23499290#5" to="-28295586#7"/>
    <trip id="bus12" type="bus_bus" depart="211.41" departLane="best" from="-1156837531#0" to="23499290#6"/>
    <trip id="bus13" type="bus_bus" depart="229.02" departLane="best" from="-1213248833#0" to="-28295586#0"/>
    <trip id="bus14" type="bus_bus" depart="246.64" departLane="best" from="207272730#2" to="1328757700#1"/>
    <trip id="bus15" type="bus_bus" depart="264.26" departLane="best" from="-207272730#1" to="23499291#0"/>
    <trip id="bus16" type="bus_bus" depart="281.87" departLane="best" from="-207269329" to="48132792"/>
    <trip id="bus17" type="bus_bus" depart="299.49" departLane="best" from="1231346482#2" to="23075470#1"/>
    <trip id="bus19" type="bus_bus" depart="334.73" departLane="best" from="-23499290#6" to="-112716562#1"/>
    <trip id="bus20" type="bus_bus" depart="352.34" departLane="best" from="-30923610#2" to="26550573#1"/>
    <trip id="bus21" type="bus_bus" depart="369.96" departLane="best" from="-30923610#6" to="-30247212#0"/>
    <trip id="bus23" type="bus_bus" depart="405.19" departLane="best" from="27768976#0" to="-23804689#3"/>
    <trip id="bus24" type="bus_bus" depart="422.81" departLane="best" from="1039298156" to="-23499286#0"/>
    <trip id="bus25" type="bus_bus" depart="440.43" departLane="best" from="-1231346482#0" to="207267781"/>
    <trip id="bus28" type="bus_bus" depart="493.28" departLane="best" from="566562032#5" to="30247210"/>
    <trip id="bus30" type="bus_bus" depart="528.51" departLane="best" from="-23075452#5" to="1191363305"/>
    <trip id="bus31" type="bus_bus" depart="546.13" departLane="best" from="27768976#2" to="207270060"/>
    <trip id="bus34" type="bus_bus" depart="598.98" departLane="best" from="33622109" to="30923610#3"/>
    <trip id="bus35" type="bus_bus" depart="616.60" departLane="best" from="-30247206#2" to="207269329"/>
    <trip id="bus36" type="bus_bus" depart="634.22" departLane="best" from="1328757700#2" to="207146756#0"/>
    <trip id="bus38" type="bus_bus" depart="669.45" departLane="best" from="-240980211" to="26808454#4"/>
    <trip id="bus39" type="bus_bus" depart="687.07" departLane="best" from="-102030553#0" to="30923610#4"/>
    <trip id="bus40" type="bus_bus" depart="704.69" departLane="best" from="397330144#4" to="-112716595#0"/>
    <trip id="bus41" type="bus_bus" depart="722.30" departLane="best" from="-30923610#7" to="397330143#0"/>
    <trip id="bus43" type="bus_bus" depart="757.54" departLane="best" from="-1149857667#1" to="237621839#4"/>
    <trip id="bus44" type="bus_bus" depart="775.15" departLane="best" from="1149819098" to="1213248835"/>
    <trip id="bus45" type="bus_bus" depart="792.77" departLane="best" from="27768976#1" to="30923610#5"/>
    <trip id="bus48" type="bus_bus" depart="845.62" departLane="best" from="-23075452#4" to="-30247209#1"/>
    <trip id="bus49" type="bus_bus" depart="863.24" departLane="best" from="995118259#2" to="217684147"/>
    <trip id="bus51" type="bus_bus" depart="898.47" departLane="best" from="-23499290#7" to="-23499286#1"/>
    <trip id="bus52" type="bus_bus" depart="916.09" departLane="best" from="-1149857667#2" to="-207269298#1"/>
    <trip id="bus54" type="bus_bus" depart="951.33" departLane="best" from="1058246676#1" to="-31251140#4"/>
    <trip id="bus55" type="bus_bus" depart="968.94" departLane="best" from="30247209#1" to="23804689#6"/>
    <trip id="bus56" type="bus_bus" depart="986.56" departLane="best" from="-217685960#1" to="-112716562#6"/>
    <trip id="bus59" type="bus_bus" depart="1039.41" departLane="best" from="1213248834#2" to="-112716581#0"/>
    <trip id="bus63" type="bus_bus" depart="1109.88" departLane="best" from="1058246676#0" to="-112716595#1"/>
    <trip id="bus66" type="bus_bus" depart="1162.73" departLane="best" from="-207269298#0" to="-28295587#3"/>
    <trip id="bus67" type="bus_bus" depart="1180.35" departLane="best" from="-207269298#2" to="48057014"/>
    <trip id="bus68" type="bus_bus" depart="1197.97" departLane="best" from="-1156837531#1" to="217684158#1"/>
    <trip id="bus70" type="bus_bus" depart="1233.20" departLane="best" from="-23499291#2" to="-1247080836#2"/>
    <trip id="bus71" type="bus_bus" depart="1250.82" departLane="best" from="-31251140#5" to="-23804689#3"/>
    <trip id="bus72" type="bus_bus" depart="1268.43" departLane="best" departSpeed="max" from="1187413810#0" to="33622826#0"/>
    <trip id="bus73" type="bus_bus" depart="1286.05" departLane="best" from="-23075470#1" to="23499289#5"/>
    <trip id="bus75" type="bus_bus" depart="1321.29" departLane="best" from="-30923610#2" to="1149819098"/>
    <trip id="bus76" type="bus_bus" depart="1338.90" departLane="best" from="-1149857667#3" to="-112716581#0"/>
    <trip id="bus77" type="bus_bus" depart="1356.52" departLane="best" from="1149857667#4" to="237621835#5"/>
    <trip id="bus78" type="bus_bus" depart="1374.14" departLane="best" from="27768976#1" to="33622436#0"/>
    <trip id="bus79" type="bus_bus" depart="1391.75" departLane="best" from="397330148" to="-207269298#0"/>
    <trip id="bus80" type="bus_bus" depart="1409.37" departLane="best" from="-1330809710" to="995115342"/>
    <trip id="bus81" type="bus_bus" depart="1426.99" departLane="best" from="-217684154" to="-112716504"/>
    <trip id="bus82" type="bus_bus" depart="1444.61" departLane="best" from="-23499290#1" to="-23075452#3"/>
    <trip id="bus84" type="bus_bus" depart="1479.84" departLane="best" from="1149857663#1" to="33622107#0"/>
    <trip id="bus88" type="bus_bus" depart="1550.31" departLane="best" from="33622106#0" to="1213248834#0"/>
    <trip id="bus90" type="bus_bus" depart="1585.54" departLane="best" from="-30247212#0" to="-33622103#0"/>
    <trip id="bus91" type="bus_bus" depart="1603.16" departLane="best" from="26550347#7" to="30247210"/>
    <trip id="bus93" type="bus_bus" depart="1638.39" departLane="best" from="1081351985#1" to="206540071#1"/>
    <trip id="bus94" type="bus_bus" depart="1656.01" departLane="best" from="30247212#0" to="701721680"/>
    <trip id="bus95" type="bus_bus" depart="1673.63" departLane="best" from="26808454#6" to="31251137"/>
    <trip id="bus97" type="bus_bus" depart="1708.86" departLane="best" from="-31251140#3" to="-33622433"/>
    <trip id="bus98" type="bus_bus" depart="1726.48" departLane="best" from="26808454#6" to="1159214946#0"/>
    <trip id="bus100" type="bus_bus" depart="1761.71" departLane="best" from="-30923610#2" to="-30247209#0"/>
    <trip id="bus103" type="bus_bus" depart="1814.57" departLane="best" from="-207270060" to="995118316"/>
    <trip id="bus104" type="bus_bus" depart="1832.18" departLane="best" from="-723381305" to="1191363305"/>
    <trip id="bus105" type="bus_bus" depart="1849.80" departLane="best" from="-33622828" to="-1231346482#3"/>
    <trip id="bus106" type="bus_bus" depart="1867.42" departLane="best" from="566562032#5" to="217684151"/>
    <trip id="bus108" type="bus_bus" depart="1902.65" departLane="best" from="-1215008046" to="112716549#2"/>
    <trip id="bus111" type="bus_bus" depart="1955.50" departLane="best" from="-33622826#1" to="-1149857667#0"/>
    <trip id="bus113" type="bus_bus" depart="1990.74" departLane="best" from="-30247212#1" to="1058246676#0"/>
    <trip id="bus114" type="bus_bus" depart="2008.35" departLane="best" from="-1296936006#0" to="-112716509#0"/>
    <trip id="bus115" type="bus_bus" depart="2025.97" departLane="best" from="-33622829" to="23075452#1"/>
    <trip id="bus116" type="bus_bus" depart="2043.59" departLane="best" from="-33622103#3" to="-184857720#1"/>
    <trip id="bus117" type="bus_bus" depart="2061.21" departLane="best" from="-30247208#2" to="1213248834#0"/>
    <trip id="bus118" type="bus_bus" depart="2078.82" departLane="best" from="-217684154" to="-112716595#0"/>
    <trip id="bus120" type="bus_bus" depart="2114.06" departLane="best" from="1149819097#5" to="-33622103#3"/>
    <trip id="bus122" type="bus_bus" depart="2149.29" departLane="best" from="-207269298#2" to="31251140#0"/>
    <trip id="bus123" type="bus_bus" depart="2166.91" departLane="best" from="217685967#1" to="-23499288#1"/>
    <trip id="bus124" type="bus_bus" depart="2184.53" departLane="best" from="23804689#7" to="1138236586"/>
    <trip id="bus127" type="bus_bus" depart="2237.38" departLane="best" departSpeed="max" from="1149857666#0" to="-23804689#1"/>
    <trip id="bus129" type="bus_bus" depart="2272.61" departLane="best" from="237621837" to="23804689#3"/>
    <trip id="bus130" type="bus_bus" depart="2290.23" departLane="best" from="217684152" to="-397330148"/>
    <trip id="bus131" type="bus_bus" depart="2307.85" departLane="best" from="-26550573#0" to="-112716581#0"/>
    <trip id="bus135" type="bus_bus" depart="2378.31" departLane="best" from="23499290#2" to="1149857667#2"/>
    <trip id="bus137" type="bus_bus" depart="2413.55" departLane="best" from="33622102#1" to="237621836#1"/>
    <trip id="bus139" type="bus_bus" depart="2448.78" departLane="best" departSpeed="max" from="23802570#0" to="1159214946#0"/>
    <trip id="bus140" type="bus_bus" depart="2466.40" departLane="best" from="-1149857667#7" to="-28295586#4"/>
    <trip id="bus141" type="bus_bus" depart="2484.02" departLane="best" from="28161299#3" to="1296947820"/>
    <trip id="bus142" type="bus_bus" depart="2501.63" departLane="best" from="1196773156" to="-1328757700#2"/>
    <trip id="bus143" type="bus_bus" depart="2519.25" departLane="best" from="-23499290#8" to="23499279#7"/>
    <trip id="bus144" type="bus_bus" depart="2536.87" departLane="best" from="-23499286#1" to="-112716623#0"/>
    <trip id="bus145" type="bus_bus" depart="2554.49" departLane="best" from="237621835#5" to="1213248833#0"/>
    <trip id="bus147" type="bus_bus" depart="2589.72" departLane="best" from="1289116082#3" to="23499283#0"/>
    <trip id="bus148" type="bus_bus" depart="2607.34" departLane="best" from="30247208#0" to="23804689#0"/>
    <trip id="bus150" type="bus_bus" depart="2642.57" departLane="best" from="-33622107#0" to="237621838"/>
    <trip id="bus152" type="bus_bus" depart="2677.81" departLane="best" from="23499288#1" to="-23499286#0"/>
    <trip id="bus153" type="bus_bus" depart="2695.42" departLane="best" from="-31251140#7" to="23075452#2"/>
    <trip id="bus154" type="bus_bus" depart="2713.04" departLane="best" from="1078366795#1" to="207269325#1"/>
    <trip id="bus160" type="bus_bus" depart="2818.74" departLane="best" from="-217684147" to="241009507"/>
    <trip id="bus161" type="bus_bus" depart="2836.36" departLane="best" from="217684152" to="237621838"/>
    <trip id="bus162" type="bus_bus" depart="2853.98" departLane="best" departSpeed="max" from="397330144#0" to="-23075452#0"/>
    <trip id="bus165" type="bus_bus" depart="2906.83" departLane="best" from="-207270066#1" to="1328757700#0"/>
    <trip id="bus166" type="bus_bus" depart="2924.45" departLane="best" from="27768976#2" to="566562032#0"/>
    <trip id="bus167" type="bus_bus" depart="2942.06" departLane="best" from="-1215008046" to="-112716550"/>
    <trip id="bus168" type="bus_bus" depart="2959.68" departLane="best" from="-30247212#3" to="23075452#1"/>
    <trip id="bus169" type="bus_bus" depart="2977.30" departLane="best" from="1198568754" to="-995118259#1"/>
    <trip id="bus170" type="bus_bus" depart="2994.91" departLane="best" from="23499279#4" to="207267781"/>
    <trip id="bus174" type="bus_bus" depart="3065.38" departLane="best" from="-1213248834#0" to="48057014"/>
    <trip id="bus175" type="bus_bus" depart="3083.00" departLane="best" from="-207269318#1" to="-28295586#1"/>
    <trip id="bus176" type="bus_bus" depart="3100.62" departLane="best" from="237621834" to="566562032#1"/>
    <trip id="bus180" type="bus_bus" depart="3171.09" departLane="best" from="1130592206" to="1330809710"/>
    <trip id="bus182" type="bus_bus" depart="3206.32" departLane="best" from="-23499285#1" to="26550347#0"/>
    <trip id="bus183" type="bus_bus" depart="3223.94" departLane="best" from="33622102#1" to="-30977372"/>
    <trip id="bus184" type="bus_bus" depart="3241.55" departLane="best" from="23499285#1" to="-28161299#3"/>
    <trip id="bus187" type="bus_bus" depart="3294.41" departLane="best" from="1149857663#1" to="237621839#2"/>
    <trip id="bus188" type="bus_bus" depart="3312.02" departLane="best" from="23499279#4" to="207272730#0"/>
    <trip id="bus189" type="bus_bus" depart="3329.64" departLane="best" from="23499279#5" to="30247208#2"/>
    <trip id="bus190" type="bus_bus" depart="3347.26" departLane="best" from="1289116082#13" to="-1130592206"/>
    <trip id="bus191" type="bus_bus" depart="3364.87" departLane="best" from="-1189098501" to="-112716522#0"/>
    <trip id="bus192" type="bus_bus" depart="3382.49" departLane="best" from="237621836#4" to="30972272"/>
    <trip id="bus193" type="bus_bus" depart="3400.11" departLane="best" from="23499285#2" to="-27768976#1"/>
    <trip id="bus200" type="bus_bus" depart="3523.43" departLane="best" from="30247212#3" to="1149819100#4"/>
    <trip id="bus201" type="bus_bus" depart="3541.05" departLane="best" from="-217685956" to="-112716581#1"/>
    <trip id="bus202" type="bus_bus" depart="3558.66" departLane="best" from="1149857667#5" to="-207269298#0"/>
    <trip id="bus203" type="bus_bus" depart="3576.28" departLane="best" from="1237642828" to="-30247206#2"/>
    <trip id="bus204" type="bus_bus" depart="3593.90" departLane="best" from="995118259#1" to="-1247080836#2"/>
</routes>
