<?xml version="1.0" encoding="UTF-8"?>

<!-- generated on 2025-01-24 16:54:05 by Eclipse SUMO netconvert Version 1.21.0
<netconvertConfiguration xmlns:xsi="http://www.w3.org/2001/XMLSchema-instance" xsi:noNamespaceSchemaLocation="http://sumo.dlr.de/xsd/netconvertConfiguration.xsd">

    <input>
        <type-files value="${SUMO_HOME}/data/typemap/osmNetconvert.typ.xml"/>
        <osm-files value="osm_bbox.osm.xml.gz"/>
    </input>

    <output>
        <output-file value="osm.net.xml.gz"/>
        <output.street-names value="true"/>
        <output.original-names value="true"/>
    </output>

    <projection>
        <proj.utm value="true"/>
    </projection>

    <processing>
        <geometry.remove value="true"/>
        <roundabouts.guess value="true"/>
        <lefthand value="true"/>
    </processing>

    <tls_building>
        <tls.discard-simple value="true"/>
        <tls.join value="true"/>
        <tls.guess-signals value="true"/>
        <tls.default-type value="actuated"/>
    </tls_building>

    <ramp_guessing>
        <ramps.guess value="true"/>
    </ramp_guessing>

    <junctions>
        <junctions.join value="true"/>
        <junctions.corner-detail value="5"/>
    </junctions>

</netconvertConfiguration>
-->

<net version="1.20" junctionCornerDetail="5" lefthand="true" limitTurnSpeed="5.50" xmlns:xsi="http://www.w3.org/2001/XMLSchema-instance" xsi:noNamespaceSchemaLocation="http://sumo.dlr.de/xsd/net_file.xsd">

    <location netOffset="-417874.97,-1445604.09" convBoundary="0.00,-0.00,1622.07,1196.95" origBoundary="80.242459,13.075475,80.257419,13.086293" projParameter="+proj=utm +zone=44 +ellps=WGS84 +datum=WGS84 +units=m +no_defs"/>

    <type id="highway.footway" priority="1" numLanes="1" speed="2.78" allow="pedestrian" oneway="1" width="2.00"/>
    <type id="highway.living_street" priority="2" numLanes="1" speed="2.78" disallow="tram rail_urban rail rail_electric rail_fast ship container cable_car subway aircraft wheelchair scooter drone" oneway="0"/>
    <type id="highway.path" priority="1" numLanes="1" speed="5.56" allow="pedestrian bicycle" oneway="0" width="2.00"/>
    <type id="highway.primary" priority="12" numLanes="2" speed="27.78" disallow="tram rail_urban rail rail_electric rail_fast ship container cable_car subway aircraft wheelchair scooter drone" oneway="0"/>
    <type id="highway.residential" priority="3" numLanes="1" speed="13.89" disallow="tram rail_urban rail rail_electric rail_fast ship container cable_car subway aircraft wheelchair scooter drone" oneway="0"/>
    <type id="highway.secondary" priority="11" numLanes="1" speed="27.78" disallow="tram rail_urban rail rail_electric rail_fast ship container cable_car subway aircraft wheelchair scooter drone" oneway="0"/>
    <type id="highway.secondary_link" priority="6" numLanes="1" speed="22.22" disallow="tram rail_urban rail rail_electric rail_fast ship container cable_car subway aircraft wheelchair scooter drone" oneway="0"/>
    <type id="highway.service" priority="1" numLanes="1" speed="5.56" allow="pedestrian delivery bicycle" oneway="0"/>
    <type id="highway.steps" priority="1" numLanes="1" speed="1.39" allow="pedestrian" oneway="1" width="2.00"/>
    <type id="highway.tertiary" priority="10" numLanes="1" speed="22.22" disallow="tram rail_urban rail rail_electric rail_fast ship container cable_car subway aircraft wheelchair scooter drone" oneway="0"/>
    <type id="highway.track" priority="1" numLanes="1" speed="5.56" allow="pedestrian motorcycle moped bicycle" oneway="0"/>
    <type id="railway.rail" priority="20" numLanes="1" speed="44.44" allow="rail" oneway="1"/>
    <type id="railway.subway" priority="18" numLanes="1" speed="27.78" allow="subway" oneway="1"/>

    <edge id=":10008476392_0" function="internal">
        <lane id=":10008476392_0_0" index="0" allow="pedestrian delivery bicycle" speed="3.65" length="4.67" shape="83.46,591.40 82.34,592.30 82.00,593.13 82.47,593.90 83.73,594.59"/>
    </edge>
    <edge id=":10008476393_0" function="internal">
        <lane id=":10008476393_0_0" index="0" disallow="tram rail_urban rail rail_electric rail_fast ship container cable_car subway aircraft wheelchair scooter drone" speed="3.65" length="4.67" shape="60.91,596.52 62.03,595.62 62.37,594.79 61.90,594.03 60.64,593.33"/>
    </edge>
    <edge id=":10168049978_0" function="internal">
        <lane id=":10168049978_0_0" index="0" allow="pedestrian delivery bicycle" speed="5.09" length="5.06" shape="1157.42,315.95 1157.05,317.26 1156.33,318.14 1155.27,318.60 1153.87,318.64"/>
    </edge>
    <edge id=":10168049978_1" function="internal">
        <lane id=":10168049978_1_0" index="0" disallow="tram rail_urban rail rail_electric rail_fast ship container cable_car subway aircraft wheelchair scooter drone" speed="13.89" length="9.39" shape="1157.42,315.95 1156.23,325.27"/>
    </edge>
    <edge id=":10168049978_2" function="internal">
        <lane id=":10168049978_2_0" index="0" disallow="tram rail_urban rail rail_electric rail_fast ship container cable_car subway aircraft wheelchair scooter drone" speed="13.89" length="9.38" shape="1159.40,325.67 1160.59,316.36"/>
    </edge>
    <edge id=":10168049978_3" function="internal">
        <lane id=":10168049978_3_0" index="0" allow="pedestrian delivery bicycle" speed="6.85" length="3.27" shape="1159.40,325.67 1159.35,322.86 1159.17,322.44"/>
    </edge>
    <edge id=":10168049978_7" function="internal">
        <lane id=":10168049978_7_0" index="0" allow="pedestrian delivery bicycle" speed="6.85" length="6.96" shape="1159.17,322.44 1158.42,320.75 1156.59,319.35 1153.87,318.64"/>
    </edge>
    <edge id=":10168049978_4" function="internal">
        <lane id=":10168049978_4_0" index="0" allow="pedestrian delivery bicycle" speed="5.03" length="5.02" shape="1153.51,321.82 1154.85,322.17 1155.74,322.86 1156.20,323.89 1156.23,325.27"/>
    </edge>
    <edge id=":10168049978_5" function="internal">
        <lane id=":10168049978_5_0" index="0" allow="pedestrian delivery bicycle" speed="6.90" length="10.16" shape="1153.51,321.82 1156.31,321.74 1158.42,320.81 1159.85,319.01 1160.59,316.36"/>
    </edge>
    <edge id=":10168049978_6" function="internal">
        <lane id=":10168049978_6_0" index="0" allow="pedestrian delivery bicycle" speed="3.65" length="4.67" shape="1153.51,321.82 1154.80,321.16 1155.28,320.41 1154.97,319.57 1153.87,318.64"/>
    </edge>
    <edge id=":10168049979_0" function="internal">
        <lane id=":10168049979_0_0" index="0" allow="pedestrian delivery bicycle" speed="3.65" length="4.67" shape="1069.39,309.21 1068.11,309.87 1067.63,310.63 1067.93,311.47 1069.04,312.39"/>
    </edge>
    <edge id=":10271192122_0" function="internal">
        <lane id=":10271192122_0_0" index="0" allow="pedestrian delivery bicycle" speed="5.56" length="9.52" shape="552.14,370.92 551.02,380.38"/>
    </edge>
    <edge id=":10271192122_1" function="internal">
        <lane id=":10271192122_1_0" index="0" allow="pedestrian delivery bicycle" speed="5.56" length="10.27" shape="552.14,370.92 552.17,373.74 553.11,375.86 554.94,377.27 557.68,377.97"/>
    </edge>
    <edge id=":10271192122_2" function="internal">
        <lane id=":10271192122_2_0" index="0" allow="pedestrian delivery bicycle" speed="3.65" length="4.67" shape="552.14,370.92 552.78,372.22 553.52,372.72 554.36,372.42 555.31,371.34"/>
    </edge>
    <edge id=":10271192122_3" function="internal">
        <lane id=":10271192122_3_0" index="0" allow="pedestrian delivery bicycle" speed="5.02" length="5.03" shape="558.02,374.79 556.68,374.44 555.79,373.75 555.33,372.72 555.31,371.34"/>
    </edge>
    <edge id=":10271192122_4" function="internal">
        <lane id=":10271192122_4_0" index="0" allow="pedestrian delivery bicycle" speed="5.56" length="10.22" shape="558.02,374.79 555.21,374.88 553.10,375.84 551.71,377.67 551.02,380.38"/>
    </edge>
    <edge id=":10271192122_5" function="internal">
        <lane id=":10271192122_5_0" index="0" allow="pedestrian delivery bicycle" speed="3.65" length="4.67" shape="558.02,374.79 556.74,375.45 556.26,376.20 556.57,377.04 557.68,377.97"/>
    </edge>
    <edge id=":10271192122_6" function="internal">
        <lane id=":10271192122_6_0" index="0" allow="pedestrian delivery bicycle" speed="5.06" length="5.05" shape="554.20,380.71 554.54,379.38 555.24,378.48 556.28,378.01 557.68,377.97"/>
    </edge>
    <edge id=":10271192122_7" function="internal">
        <lane id=":10271192122_7_0" index="0" allow="pedestrian delivery bicycle" speed="5.56" length="9.44" shape="554.20,380.71 555.31,371.34"/>
    </edge>
    <edge id=":10271192122_8" function="internal">
        <lane id=":10271192122_8_0" index="0" allow="pedestrian delivery bicycle" speed="3.65" length="4.67" shape="554.20,380.71 553.53,379.43 552.78,378.95 551.94,379.27 551.02,380.38"/>
    </edge>
    <edge id=":10271192124_0" function="internal">
        <lane id=":10271192124_0_0" index="0" allow="pedestrian delivery bicycle" speed="3.65" length="4.67" shape="582.35,380.66 583.63,379.99 584.11,379.24 583.80,378.40 582.69,377.48"/>
    </edge>
    <edge id=":10536660720_0" function="internal">
        <lane id=":10536660720_0_0" index="0" disallow="tram rail_urban rail rail_electric rail_fast ship container cable_car subway aircraft wheelchair scooter drone" speed="15.28" length="18.61" shape="303.98,1151.60 303.76,1147.26 303.64,1142.24 303.89,1137.27 304.80,1133.11"/>
    </edge>
    <edge id=":10536660720_1" function="internal">
        <lane id=":10536660720_1_0" index="0" disallow="tram rail_urban rail rail_electric rail_fast ship container cable_car subway aircraft wheelchair scooter drone" speed="2.78" length="4.67" shape="303.98,1151.60 303.12,1150.44 302.31,1150.08 301.53,1150.52 300.79,1151.76"/>
    </edge>
    <edge id=":10536660720_2" function="internal">
        <lane id=":10536660720_2_0" index="0" disallow="tram rail_urban rail rail_electric rail_fast ship container cable_car subway aircraft wheelchair scooter drone" speed="5.46" length="10.26" shape="295.39,1150.21 297.59,1147.63 299.23,1147.03 300.29,1148.41 300.79,1151.76"/>
    </edge>
    <edge id=":10536660720_3" function="internal">
        <lane id=":10536660720_3_0" index="0" disallow="tram rail_urban rail rail_electric rail_fast ship container cable_car subway aircraft wheelchair scooter drone" speed="27.78" length="19.55" shape="295.39,1150.21 297.82,1146.47 300.51,1141.87 302.99,1137.18 304.80,1133.11"/>
    </edge>
    <edge id=":10536660721_0" function="internal">
        <lane id=":10536660721_0_0" index="0" disallow="tram rail_urban rail rail_electric rail_fast ship container cable_car subway aircraft wheelchair scooter drone" speed="3.90" length="2.62" shape="390.16,1159.30 390.05,1160.01 389.74,1160.51 389.22,1160.80 388.51,1160.88"/>
    </edge>
    <edge id=":10536660721_1" function="internal">
        <lane id=":10536660721_1_0" index="0" disallow="tram rail_urban rail rail_electric rail_fast ship container cable_car subway aircraft wheelchair scooter drone" speed="6.07" length="7.87" shape="388.41,1164.08 390.56,1163.84 392.10,1162.96 393.03,1161.46 393.36,1159.32"/>
    </edge>
    <edge id=":10536660724_0" function="internal">
        <lane id=":10536660724_0_0" index="0" disallow="tram rail_urban rail rail_electric rail_fast ship container cable_car subway aircraft wheelchair scooter drone" speed="3.91" length="2.41" shape="305.71,1157.13 305.06,1157.01 304.60,1156.72 304.30,1156.25 304.18,1155.61"/>
    </edge>
    <edge id=":10536660724_1" function="internal">
        <lane id=":10536660724_1_0" index="0" disallow="tram rail_urban rail rail_electric rail_fast ship container cable_car subway aircraft wheelchair scooter drone" speed="6.09" length="7.23" shape="300.98,1155.77 301.35,1157.69 302.23,1159.09 303.64,1159.97 305.56,1160.33"/>
    </edge>
    <edge id=":10610334406_0" function="internal">
        <lane id=":10610334406_0_0" index="0" disallow="tram rail_urban rail rail_electric rail_fast ship container cable_car subway aircraft wheelchair scooter drone" speed="3.65" length="4.67" shape="216.13,124.23 217.25,125.13 218.13,125.27 218.78,124.65 219.18,123.26"/>
    </edge>
    <edge id=":10757834831_0" function="internal">
        <lane id=":10757834831_0_0" index="0" disallow="tram rail_urban rail rail_electric rail_fast ship container cable_car subway aircraft wheelchair scooter drone" speed="5.90" length="7.20" shape="479.09,309.36 479.72,307.00 480.62,305.39 481.79,304.53 483.24,304.43"/>
    </edge>
    <edge id=":10757834831_1" function="internal">
        <lane id=":10757834831_1_0" index="0" disallow="tram rail_urban rail rail_electric rail_fast ship container cable_car subway aircraft wheelchair scooter drone" speed="3.65" length="4.67" shape="479.09,309.36 478.51,308.04 477.80,307.51 476.94,307.76 475.94,308.80"/>
    </edge>
    <edge id=":10757834831_2" function="internal">
        <lane id=":10757834831_2_0" index="0" disallow="tram rail_urban rail rail_electric rail_fast ship container cable_car subway aircraft wheelchair scooter drone" speed="6.53" length="9.01" shape="471.46,302.27 473.79,303.07 475.31,304.42 476.03,306.33 475.94,308.80"/>
    </edge>
    <edge id=":10757834831_3" function="internal">
        <lane id=":10757834831_3_0" index="0" disallow="tram rail_urban rail rail_electric rail_fast ship container cable_car subway aircraft wheelchair scooter drone" speed="27.78" length="11.95" shape="471.46,302.27 483.24,304.43"/>
        <lane id=":10757834831_3_1" index="1" disallow="tram rail_urban rail rail_electric rail_fast ship container cable_car subway aircraft wheelchair scooter drone" speed="27.78" length="11.95" shape="472.06,299.13 483.79,301.28"/>
    </edge>
    <edge id=":10757834832_0" function="internal">
        <lane id=":10757834832_0_0" index="0" disallow="tram rail_urban rail rail_electric rail_fast ship container cable_car subway aircraft wheelchair scooter drone" speed="6.61" length="9.13" shape="471.84,331.71 471.06,334.05 469.70,335.60 467.76,336.37 465.25,336.35"/>
    </edge>
    <edge id=":10757834832_1" function="internal">
        <lane id=":10757834832_1_0" index="0" disallow="tram rail_urban rail rail_electric rail_fast ship container cable_car subway aircraft wheelchair scooter drone" speed="13.89" length="14.36" shape="471.84,331.71 469.47,345.88"/>
    </edge>
    <edge id=":10757834832_2" function="internal">
        <lane id=":10757834832_2_0" index="0" disallow="tram rail_urban rail rail_electric rail_fast ship container cable_car subway aircraft wheelchair scooter drone" speed="3.65" length="1.44" shape="471.84,331.71 472.42,333.03"/>
    </edge>
    <edge id=":10757834832_9" function="internal">
        <lane id=":10757834832_9_0" index="0" disallow="tram rail_urban rail rail_electric rail_fast ship container cable_car subway aircraft wheelchair scooter drone" speed="3.65" length="3.23" shape="472.42,333.03 473.13,333.57 473.99,333.31 474.99,332.27"/>
    </edge>
    <edge id=":10757834832_3" function="internal">
        <lane id=":10757834832_3_0" index="0" disallow="tram rail_urban rail rail_electric rail_fast ship container cable_car subway aircraft wheelchair scooter drone" speed="13.89" length="14.29" shape="472.63,346.37 474.99,332.27"/>
    </edge>
    <edge id=":10757834832_4" function="internal">
        <lane id=":10757834832_4_0" index="0" disallow="tram rail_urban rail rail_electric rail_fast ship container cable_car subway aircraft wheelchair scooter drone" speed="7.99" length="3.90" shape="472.63,346.37 472.68,342.47"/>
    </edge>
    <edge id=":10757834832_5" function="internal">
        <lane id=":10757834832_5_0" index="0" disallow="tram rail_urban rail rail_electric rail_fast ship container cable_car subway aircraft wheelchair scooter drone" speed="3.65" length="1.44" shape="472.63,346.37 472.03,345.06"/>
    </edge>
    <edge id=":10757834832_10" function="internal">
        <lane id=":10757834832_10_0" index="0" disallow="tram rail_urban rail rail_electric rail_fast ship container cable_car subway aircraft wheelchair scooter drone" speed="7.99" length="10.32" shape="472.68,342.47 471.47,339.50 468.99,337.46 465.25,336.35"/>
    </edge>
    <edge id=":10757834832_11" function="internal">
        <lane id=":10757834832_11_0" index="0" disallow="tram rail_urban rail rail_electric rail_fast ship container cable_car subway aircraft wheelchair scooter drone" speed="3.65" length="3.23" shape="472.03,345.06 471.30,344.54 470.45,344.81 469.47,345.88"/>
    </edge>
    <edge id=":10757834832_6" function="internal">
        <lane id=":10757834832_6_0" index="0" disallow="tram rail_urban rail rail_electric rail_fast ship container cable_car subway aircraft wheelchair scooter drone" speed="6.49" length="9.03" shape="464.78,339.51 467.16,340.22 468.73,341.51 469.50,343.40 469.47,345.88"/>
    </edge>
    <edge id=":10757834832_7" function="internal">
        <lane id=":10757834832_7_0" index="0" disallow="tram rail_urban rail rail_electric rail_fast ship container cable_car subway aircraft wheelchair scooter drone" speed="8.09" length="14.18" shape="464.78,339.51 468.68,339.54 471.67,338.34 473.78,335.92 474.99,332.27"/>
    </edge>
    <edge id=":10757834832_8" function="internal">
        <lane id=":10757834832_8_0" index="0" disallow="tram rail_urban rail rail_electric rail_fast ship container cable_car subway aircraft wheelchair scooter drone" speed="3.65" length="4.67" shape="464.78,339.51 466.08,338.90 466.60,338.16 466.32,337.31 465.25,336.35"/>
    </edge>
    <edge id=":10757834834_0" function="internal">
        <lane id=":10757834834_0_0" index="0" disallow="tram rail_urban rail rail_electric rail_fast ship container cable_car subway aircraft wheelchair scooter drone" speed="6.08" length="7.61" shape="424.55,395.45 424.59,397.53 425.29,399.11 426.64,400.19 428.63,400.77"/>
    </edge>
    <edge id=":10757834834_1" function="internal">
        <lane id=":10757834834_1_0" index="0" disallow="tram rail_urban rail rail_electric rail_fast ship container cable_car subway aircraft wheelchair scooter drone" speed="3.91" length="2.54" shape="429.09,397.61 428.42,397.41 427.97,397.05 427.74,396.52 427.73,395.83"/>
    </edge>
    <edge id=":10757834836_0" function="internal">
        <lane id=":10757834836_0_0" index="0" allow="pedestrian delivery bicycle" speed="8.05" length="9.20" shape="414.30,473.49 414.43,475.48 415.24,477.38 416.74,479.19 418.94,480.90"/>
    </edge>
    <edge id=":10757834836_1" function="internal">
        <lane id=":10757834836_1_0" index="0" allow="pedestrian delivery bicycle" speed="3.65" length="4.67" shape="414.30,473.49 414.97,474.77 415.72,475.25 416.56,474.94 417.48,473.83"/>
    </edge>
    <edge id=":10757834836_2" function="internal">
        <lane id=":10757834836_2_0" index="0" disallow="tram rail_urban rail rail_electric rail_fast ship container cable_car subway aircraft wheelchair scooter drone" speed="27.78" length="10.18" shape="408.67,478.00 417.19,483.57"/>
        <lane id=":10757834836_2_1" index="1" disallow="tram rail_urban rail rail_electric rail_fast ship container cable_car subway aircraft wheelchair scooter drone" speed="27.78" length="10.18" shape="410.42,475.32 418.94,480.90"/>
    </edge>
    <edge id=":10757834836_4" function="internal">
        <lane id=":10757834836_4_0" index="0" allow="pedestrian delivery bicycle" speed="5.79" length="9.42" shape="410.42,475.32 413.28,476.81 415.41,477.06 416.81,476.07 417.48,473.83"/>
    </edge>
    <edge id=":10757834837_0" function="internal">
        <lane id=":10757834837_0_0" index="0" allow="pedestrian delivery bicycle" speed="3.65" length="4.67" shape="424.70,407.39 424.04,406.11 423.29,405.62 422.45,405.93 421.52,407.04"/>
    </edge>
    <edge id=":11031989955_0" function="internal">
        <lane id=":11031989955_0_0" index="0" disallow="tram rail_urban rail rail_electric rail_fast ship container cable_car subway aircraft wheelchair scooter drone" speed="13.89" length="9.24" shape="367.80,627.48 367.27,618.26"/>
    </edge>
    <edge id=":11031989955_1" function="internal">
        <lane id=":11031989955_1_0" index="0" allow="pedestrian delivery bicycle" speed="6.96" length="3.09" shape="367.80,627.48 367.21,624.84 366.98,624.53"/>
    </edge>
    <edge id=":11031989955_7" function="internal">
        <lane id=":11031989955_7_0" index="0" allow="pedestrian delivery bicycle" speed="6.96" length="6.99" shape="366.98,624.53 365.89,622.98 363.84,621.90 361.07,621.59"/>
    </edge>
    <edge id=":11031989955_2" function="internal">
        <lane id=":11031989955_2_0" index="0" allow="pedestrian delivery bicycle" speed="5.17" length="5.11" shape="361.16,624.79 362.58,624.94 363.63,625.48 364.30,626.41 364.61,627.72"/>
    </edge>
    <edge id=":11031989955_3" function="internal">
        <lane id=":11031989955_3_0" index="0" allow="pedestrian delivery bicycle" speed="6.85" length="10.23" shape="361.16,624.79 363.93,624.32 365.87,623.08 366.98,621.05 367.27,618.26"/>
    </edge>
    <edge id=":11031989955_4" function="internal">
        <lane id=":11031989955_4_0" index="0" allow="pedestrian delivery bicycle" speed="3.65" length="4.67" shape="361.16,624.79 362.33,623.96 362.71,623.15 362.29,622.36 361.07,621.59"/>
    </edge>
    <edge id=":11031989955_5" function="internal">
        <lane id=":11031989955_5_0" index="0" allow="pedestrian delivery bicycle" speed="5.02" length="5.02" shape="364.07,618.39 363.93,619.76 363.38,620.75 362.43,621.36 361.07,621.59"/>
    </edge>
    <edge id=":11031989955_6" function="internal">
        <lane id=":11031989955_6_0" index="0" disallow="tram rail_urban rail rail_electric rail_fast ship container cable_car subway aircraft wheelchair scooter drone" speed="13.89" length="9.35" shape="364.07,618.39 364.61,627.72"/>
    </edge>
    <edge id=":11031989956_0" function="internal">
        <lane id=":11031989956_0_0" index="0" allow="pedestrian delivery bicycle" speed="3.65" length="4.67" shape="312.67,622.84 311.49,623.67 311.11,624.48 311.53,625.27 312.75,626.04"/>
    </edge>
    <edge id=":11031989961_0" function="internal">
        <lane id=":11031989961_0_0" index="0" disallow="tram rail_urban rail rail_electric rail_fast ship container cable_car subway aircraft wheelchair scooter drone" speed="13.89" length="9.45" shape="362.72,506.04 362.33,496.60"/>
    </edge>
    <edge id=":11031989961_1" function="internal">
        <lane id=":11031989961_1_0" index="0" allow="pedestrian delivery bicycle" speed="7.13" length="3.09" shape="362.72,506.04 362.21,503.45 361.96,503.07"/>
    </edge>
    <edge id=":11031989961_7" function="internal">
        <lane id=":11031989961_7_0" index="0" allow="pedestrian delivery bicycle" speed="7.13" length="7.13" shape="361.96,503.07 360.93,501.56 358.86,500.34 356.01,499.82"/>
    </edge>
    <edge id=":11031989961_2" function="internal">
        <lane id=":11031989961_2_0" index="0" allow="pedestrian delivery bicycle" speed="5.39" length="5.42" shape="355.82,503.01 357.40,503.28 358.54,503.90 359.25,504.86 359.53,506.16"/>
    </edge>
    <edge id=":11031989961_3" function="internal">
        <lane id=":11031989961_3_0" index="0" allow="pedestrian delivery bicycle" speed="6.78" length="10.67" shape="355.82,503.01 358.78,502.76 360.85,501.60 362.03,499.55 362.33,496.60"/>
    </edge>
    <edge id=":11031989961_4" function="internal">
        <lane id=":11031989961_4_0" index="0" allow="pedestrian delivery bicycle" speed="3.65" length="4.67" shape="355.82,503.01 357.07,502.28 357.51,501.50 357.16,500.68 356.01,499.82"/>
    </edge>
    <edge id=":11031989961_5" function="internal">
        <lane id=":11031989961_5_0" index="0" allow="pedestrian delivery bicycle" speed="4.94" length="5.12" shape="359.13,496.74 358.99,498.15 358.42,499.14 357.43,499.69 356.01,499.82"/>
    </edge>
    <edge id=":11031989961_6" function="internal">
        <lane id=":11031989961_6_0" index="0" disallow="tram rail_urban rail rail_electric rail_fast ship container cable_car subway aircraft wheelchair scooter drone" speed="13.89" length="9.44" shape="359.13,496.74 359.53,506.16"/>
    </edge>
    <edge id=":11031989964_0" function="internal">
        <lane id=":11031989964_0_0" index="0" allow="pedestrian delivery bicycle" speed="3.65" length="4.67" shape="311.50,504.93 310.61,506.07 310.48,506.95 311.11,507.59 312.50,507.97"/>
    </edge>
    <edge id=":11031993066_0" function="internal">
        <lane id=":11031993066_0_0" index="0" disallow="tram rail_urban rail rail_electric rail_fast ship container cable_car subway aircraft wheelchair scooter drone" speed="5.90" length="9.11" shape="388.91,955.48 386.84,957.11 384.96,957.48 383.26,956.58 381.76,954.42"/>
    </edge>
    <edge id=":11031993066_1" function="internal">
        <lane id=":11031993066_1_0" index="0" disallow="tram rail_urban rail rail_electric rail_fast ship container cable_car subway aircraft wheelchair scooter drone" speed="22.22" length="14.79" shape="388.91,955.48 378.70,966.18"/>
    </edge>
    <edge id=":11031993066_2" function="internal">
        <lane id=":11031993066_2_0" index="0" disallow="tram rail_urban rail rail_electric rail_fast ship container cable_car subway aircraft wheelchair scooter drone" speed="3.65" length="1.44" shape="388.91,955.48 388.66,956.90"/>
    </edge>
    <edge id=":11031993066_9" function="internal">
        <lane id=":11031993066_9_0" index="0" disallow="tram rail_urban rail rail_electric rail_fast ship container cable_car subway aircraft wheelchair scooter drone" speed="3.65" length="3.23" shape="388.66,956.90 388.96,957.74 389.82,958.01 391.22,957.69"/>
    </edge>
    <edge id=":11031993066_3" function="internal">
        <lane id=":11031993066_3_0" index="0" disallow="tram rail_urban rail rail_electric rail_fast ship container cable_car subway aircraft wheelchair scooter drone" speed="22.22" length="14.79" shape="381.01,968.39 391.22,957.69"/>
    </edge>
    <edge id=":11031993066_4" function="internal">
        <lane id=":11031993066_4_0" index="0" disallow="tram rail_urban rail rail_electric rail_fast ship container cable_car subway aircraft wheelchair scooter drone" speed="9.46" length="3.65" shape="381.01,968.39 382.97,965.51 383.01,965.35"/>
    </edge>
    <edge id=":11031993066_5" function="internal">
        <lane id=":11031993066_5_0" index="0" disallow="tram rail_urban rail rail_electric rail_fast ship container cable_car subway aircraft wheelchair scooter drone" speed="3.65" length="1.44" shape="381.01,968.39 381.26,966.97"/>
    </edge>
    <edge id=":11031993066_10" function="internal">
        <lane id=":11031993066_10_0" index="0" disallow="tram rail_urban rail rail_electric rail_fast ship container cable_car subway aircraft wheelchair scooter drone" speed="9.46" length="11.33" shape="383.01,965.35 383.75,962.22 383.34,958.53 381.76,954.42"/>
    </edge>
    <edge id=":11031993066_11" function="internal">
        <lane id=":11031993066_11_0" index="0" disallow="tram rail_urban rail rail_electric rail_fast ship container cable_car subway aircraft wheelchair scooter drone" speed="3.65" length="3.23" shape="381.26,966.97 380.96,966.13 380.10,965.86 378.70,966.18"/>
    </edge>
    <edge id=":11031993066_6" function="internal">
        <lane id=":11031993066_6_0" index="0" disallow="tram rail_urban rail rail_electric rail_fast ship container cable_car subway aircraft wheelchair scooter drone" speed="8.19" length="11.03" shape="378.90,955.86 380.14,958.99 380.52,961.75 380.04,964.14 378.70,966.18"/>
    </edge>
    <edge id=":11031993066_7" function="internal">
        <lane id=":11031993066_7_0" index="0" disallow="tram rail_urban rail rail_electric rail_fast ship container cable_car subway aircraft wheelchair scooter drone" speed="7.53" length="15.69" shape="378.90,955.86 381.50,959.59 384.42,961.14 387.66,960.51 391.22,957.69"/>
    </edge>
    <edge id=":11031993066_8" function="internal">
        <lane id=":11031993066_8_0" index="0" disallow="tram rail_urban rail rail_electric rail_fast ship container cable_car subway aircraft wheelchair scooter drone" speed="3.65" length="4.67" shape="378.90,955.86 380.16,956.57 381.05,956.57 381.58,955.85 381.76,954.42"/>
    </edge>
    <edge id=":11031993068_0" function="internal">
        <lane id=":11031993068_0_0" index="0" disallow="tram rail_urban rail rail_electric rail_fast ship container cable_car subway aircraft wheelchair scooter drone" speed="3.65" length="4.67" shape="307.91,937.10 306.72,937.92 306.33,938.72 306.75,939.51 307.96,940.30"/>
    </edge>
    <edge id=":11031993358_0" function="internal">
        <lane id=":11031993358_0_0" index="0" allow="pedestrian delivery bicycle" speed="4.78" length="5.41" shape="1058.09,648.68 1057.84,650.21 1057.17,651.14 1056.07,651.47 1054.54,651.19"/>
    </edge>
    <edge id=":11031993358_1" function="internal">
        <lane id=":11031993358_1_0" index="0" allow="pedestrian delivery bicycle" speed="3.65" length="4.67" shape="1058.09,648.68 1058.87,649.89 1059.66,650.31 1060.47,649.92 1061.29,648.74"/>
    </edge>
    <edge id=":11031993358_2" function="internal">
        <lane id=":11031993358_2_0" index="0" allow="pedestrian delivery bicycle" speed="6.29" length="6.44" shape="1063.74,654.25 1062.64,653.58 1061.86,652.45 1061.41,650.83 1061.29,648.74"/>
    </edge>
    <edge id=":11031993358_3" function="internal">
        <lane id=":11031993358_3_0" index="0" disallow="tram rail_urban rail rail_electric rail_fast ship container cable_car subway aircraft wheelchair scooter drone" speed="27.78" length="9.70" shape="1063.74,654.25 1054.54,651.19"/>
    </edge>
    <edge id=":11031993359_0" function="internal">
        <lane id=":11031993359_0_0" index="0" allow="pedestrian delivery bicycle" speed="3.65" length="4.67" shape="1062.24,599.31 1061.46,598.09 1060.67,597.68 1059.86,598.06 1059.04,599.24"/>
    </edge>
    <edge id=":11032028644_0" function="internal">